
  EPA STORM WATER MANAGEMENT MODEL - VERSION 5.2 (Build 5.2.4)
  ------------------------------------------------------------

  
  ERROR 209: undefined object * at line 967 of [INLET] section:
  SAG-2           	CUSTOM          	*               	SAG-2-Curb&Gut  

  
  ERROR 209: undefined object * at line 968 of [INLET] section:
  2CB-75          	CUSTOM          	*               	2CB-0.75%       

  
  ERROR 209: undefined object * at line 969 of [INLET] section:
  2CB-50          	CUSTOM          	*               	2CB-0.50%       

  
  ERROR 209: undefined object * at line 970 of [INLET] section:
  1CB-1           	CUSTOM          	*               	1CB-1.00%       


  Analysis begun on:  Tue Jun 23 20:57:55 2026
  Analysis ended on:  Tue Jun 23 20:57:55 2026
  Total elapsed time: < 1 sec