
  EPA STORM WATER MANAGEMENT MODEL - VERSION 5.2 (Build 5.2.4)
  ------------------------------------------------------------

  HEC-22 example 4-9a 
  where flow capture is 
  0.03 CMS for undepressed 
  
  *************
  Element Count
  *************
  Number of rain gages ...... 0
  Number of subcatchments ... 0
  Number of nodes ........... 14
  Number of links ........... 10
  Number of pollutants ...... 0
  Number of land uses ....... 0
  
  
  ************
  Node Summary
  ************
                                           Invert      Max.    Ponded    External
  Name                 Type                 Elev.     Depth      Area    Inflow  
  -------------------------------------------------------------------------------
  1                    JUNCTION            100.00      0.15       0.0    Yes
  2                    JUNCTION             99.00      0.15       0.0
  3                    JUNCTION             98.00      0.15       0.0
  4                    JUNCTION              2.00      2.00       0.0
  5                    JUNCTION              1.00      2.00       0.0
  8                    JUNCTION            100.00      0.18       0.0    Yes
  9                    JUNCTION             99.00      0.18       0.0
  10                   JUNCTION             98.00      0.18       0.0
  12                   JUNCTION              2.00      2.00       0.0
  13                   JUNCTION              1.00      2.00       0.0
  6                    OUTFALL               0.00      2.00       0.0
  7                    OUTFALL              97.00      0.15       0.0
  11                   OUTFALL              97.00      0.18       0.0
  14                   OUTFALL               0.00      2.00       0.0
  
  
  ************
  Link Summary
  ************
  Name             From Node        To Node          Type            Length    %Slope Roughness
  ---------------------------------------------------------------------------------------------
  1                1                2                CONDUIT          100.0    1.0001    0.0160
  2                2                3                CONDUIT          100.0    1.0001    0.0160
  4                4                5                CONDUIT          400.0    0.2500    0.0100
  5                5                6                CONDUIT          400.0    0.2500    0.0100
  6                3                7                CONDUIT          100.0    1.0001    0.0160
  7                8                9                CONDUIT          100.0    1.0001    0.0160
  8                9                10               CONDUIT          100.0    1.0001    0.0160
  9                10               11               CONDUIT          100.0    1.0001    0.0160
  10               12               13               CONDUIT          400.0    0.2500    0.0100
  11               13               14               CONDUIT          400.0    0.2500    0.0100
  
  
  *********************
  Cross Section Summary
  *********************
                                        Full     Full     Hyd.     Max.   No. of     Full
  Conduit          Shape               Depth     Area     Rad.    Width  Barrels     Flow
  ---------------------------------------------------------------------------------------
  1                Street1              0.15     0.56     0.08     7.00        1     0.64
  2                Street1              0.15     0.56     0.08     7.00        1     0.64
  4                CIRCULAR             2.00     3.14     0.50     2.00        1     9.90
  5                CIRCULAR             2.00     3.14     0.50     2.00        1     9.90
  6                Street1              0.15     0.56     0.08     7.00        1     0.64
  7                Street2              0.18     0.57     0.08     7.00        1     0.65
  8                Street2              0.18     0.57     0.08     7.00        1     0.65
  9                Street2              0.18     0.57     0.08     7.00        1     0.65
  10               CIRCULAR             2.00     3.14     0.50     2.00        1     9.90
  11               CIRCULAR             2.00     3.14     0.50     2.00        1     9.90
  
  
  **************
  Street Summary
  **************

  Street Street1
  Area:  
              0.0004     0.0016     0.0036     0.0064     0.0100 
              0.0145     0.0197     0.0257     0.0325     0.0402 
              0.0486     0.0579     0.0679     0.0788     0.0904 
              0.1029     0.1161     0.1302     0.1450     0.1607 
              0.1772     0.1945     0.2125     0.2314     0.2511 
              0.2716     0.2929     0.3150     0.3379     0.3616 
              0.3861     0.4114     0.4375     0.4645     0.4922 
              0.5207     0.5500     0.5802     0.6111     0.6429 
              0.6754     0.7088     0.7429     0.7779     0.8136 
              0.8502     0.8875     0.9250     0.9625     1.0000 
  Hrad:  
              0.0188     0.0376     0.0563     0.0751     0.0939 
              0.1127     0.1314     0.1502     0.1690     0.1878 
              0.2065     0.2253     0.2441     0.2629     0.2816 
              0.3004     0.3192     0.3380     0.3567     0.3755 
              0.3943     0.4131     0.4319     0.4506     0.4694 
              0.4882     0.5070     0.5257     0.5445     0.5633 
              0.5821     0.6008     0.6196     0.6384     0.6572 
              0.6759     0.6947     0.7135     0.7323     0.7511 
              0.7698     0.7886     0.8074     0.8262     0.8449 
              0.8637     0.8886     0.9258     0.9629     1.0000 
  Width: 
              0.0214     0.0429     0.0643     0.0857     0.1071 
              0.1286     0.1500     0.1714     0.1929     0.2143 
              0.2357     0.2571     0.2786     0.3000     0.3214 
              0.3429     0.3643     0.3857     0.4071     0.4286 
              0.4500     0.4714     0.4929     0.5143     0.5357 
              0.5571     0.5786     0.6000     0.6214     0.6429 
              0.6643     0.6857     0.7071     0.7286     0.7500 
              0.7714     0.7929     0.8143     0.8357     0.8571 
              0.8786     0.9000     0.9214     0.9429     0.9643 
              0.9857     1.0000     1.0000     1.0000     1.0000 

  Street Street2
  Area:  
              0.0002     0.0007     0.0016     0.0028     0.0044 
              0.0063     0.0086     0.0112     0.0142     0.0175 
              0.0212     0.0259     0.0317     0.0386     0.0465 
              0.0556     0.0656     0.0768     0.0891     0.1024 
              0.1168     0.1323     0.1489     0.1666     0.1853 
              0.2051     0.2260     0.2480     0.2710     0.2952 
              0.3204     0.3467     0.3740     0.4025     0.4320 
              0.4626     0.4943     0.5270     0.5609     0.5958 
              0.6318     0.6689     0.7071     0.7463     0.7866 
              0.8280     0.8705     0.9137     0.9568     1.0000 
  Hrad:  
              0.0208     0.0416     0.0624     0.0832     0.1041 
              0.1249     0.1457     0.1665     0.1873     0.2081 
              0.2134     0.2085     0.2125     0.2215     0.2337 
              0.2481     0.2638     0.2807     0.2984     0.3167 
              0.3354     0.3546     0.3741     0.3938     0.4138 
              0.4339     0.4542     0.4746     0.4952     0.5158 
              0.5366     0.5574     0.5783     0.5992     0.6202 
              0.6412     0.6623     0.6834     0.7046     0.7258 
              0.7470     0.7682     0.7895     0.8108     0.8321 
              0.8535     0.8748     0.9145     0.9573     1.0000 
  Width: 
              0.0081     0.0162     0.0243     0.0324     0.0405 
              0.0486     0.0568     0.0649     0.0730     0.0811 
              0.0964     0.1214     0.1464     0.1714     0.1964 
              0.2214     0.2464     0.2714     0.2964     0.3214 
              0.3464     0.3714     0.3964     0.4214     0.4464 
              0.4714     0.4964     0.5214     0.5464     0.5714 
              0.5964     0.6214     0.6464     0.6714     0.6964 
              0.7214     0.7464     0.7714     0.7964     0.8214 
              0.8464     0.8714     0.8964     0.9214     0.9464 
              0.9714     0.9964     1.0000     1.0000     1.0000 
  
  
  ****************
  Analysis Options
  ****************
  Flow Units ............... CMS
  Process Models:
    Rainfall/Runoff ........ NO
    RDII ................... NO
    Snowmelt ............... NO
    Groundwater ............ NO
    Flow Routing ........... YES
    Ponding Allowed ........ NO
    Water Quality .......... NO
  Flow Routing Method ...... DYNWAVE
  Surcharge Method ......... EXTRAN
  Starting Date ............ 07/27/2020 00:00:00
  Ending Date .............. 07/27/2020 06:00:00
  Antecedent Dry Days ...... 0.0
  Report Time Step ......... 00:15:00
  Routing Time Step ........ 30.00 sec
  Variable Time Step ....... YES
  Maximum Trials ........... 8
  Number of Threads ........ 1
  Head Tolerance ........... 0.005000 m
  
  
  **************************        Volume        Volume
  Flow Routing Continuity        hectare-m      10^6 ltr
  **************************     ---------     ---------
  Dry Weather Inflow .......         0.000         0.000
  Wet Weather Inflow .......         0.000         0.000
  Groundwater Inflow .......         0.000         0.000
  RDII Inflow ..............         0.000         0.000
  External Inflow ..........         0.216         2.160
  External Outflow .........         0.209         2.092
  Flooding Loss ............         0.000         0.000
  Evaporation Loss .........         0.000         0.000
  Exfiltration Loss ........         0.000         0.000
  Initial Stored Volume ....         0.000         0.000
  Final Stored Volume ......         0.010         0.097
  Continuity Error (%) .....        -1.330
  
  
  *************************
  Highest Continuity Errors
  *************************
  Node 5 (2.12%)
  Node 13 (1.96%)
  Node 9 (1.02%)
  
  
  ***************************
  Time-Step Critical Elements
  ***************************
  None
  
  
  ********************************
  Highest Flow Instability Indexes
  ********************************
  All links are stable.
  
  
  *********************************
  Most Frequent Nonconverging Nodes
  *********************************
  Convergence obtained at all time steps.
  
  
  *************************
  Routing Time Step Summary
  *************************
  Minimum Time Step           :    18.53 sec
  Average Time Step           :    29.92 sec
  Maximum Time Step           :    30.00 sec
  % of Time in Steady State   :     0.00
  Average Iterations per Step :     2.01
  % of Steps Not Converging   :     0.00
  Time Step Frequencies       :
     30.000 - 13.228 sec      :   100.00 %
     13.228 -  5.833 sec      :     0.00 %
      5.833 -  2.572 sec      :     0.00 %
      2.572 -  1.134 sec      :     0.00 %
      1.134 -  0.500 sec      :     0.00 %
  
  
  ******************
  Node Depth Summary
  ******************
  
  ---------------------------------------------------------------------------------
                                 Average  Maximum  Maximum  Time of Max    Reported
                                   Depth    Depth      HGL   Occurrence   Max Depth
  Node                 Type       Meters   Meters   Meters  days hr:min      Meters
  ---------------------------------------------------------------------------------
  1                    JUNCTION     0.06     0.06   100.06     0  00:14        0.06
  2                    JUNCTION     0.06     0.06    99.06     0  00:21        0.06
  3                    JUNCTION     0.04     0.04    98.04     0  00:00        0.04
  4                    JUNCTION     0.00     0.00     2.00     0  00:00        0.00
  5                    JUNCTION     0.08     0.08     1.08     0  03:53        0.08
  8                    JUNCTION     0.08     0.08   100.08     0  00:07        0.08
  9                    JUNCTION     0.09     0.09    99.09     0  00:00        0.09
  10                   JUNCTION     0.04     0.04    98.04     0  00:08        0.04
  12                   JUNCTION     0.00     0.00     2.00     0  00:00        0.00
  13                   JUNCTION     0.10     0.10     1.10     0  04:44        0.10
  6                    OUTFALL      0.08     0.08     0.08     0  03:52        0.08
  7                    OUTFALL      0.04     0.04    97.04     0  00:00        0.04
  11                   OUTFALL      0.04     0.04    97.04     0  00:09        0.04
  14                   OUTFALL      0.09     0.09     0.09     0  04:44        0.09
  
  
  *******************
  Node Inflow Summary
  *******************
  
  -------------------------------------------------------------------------------------------------
                                  Maximum  Maximum                  Lateral       Total        Flow
                                  Lateral    Total  Time of Max      Inflow      Inflow     Balance
                                   Inflow   Inflow   Occurrence      Volume      Volume       Error
  Node                 Type           CMS      CMS  days hr:min    10^6 ltr    10^6 ltr     Percent
  -------------------------------------------------------------------------------------------------
  1                    JUNCTION     0.050    0.050     0  00:00       0.901        1.08       0.350
  2                    JUNCTION     0.000    0.050     0  00:01           0        1.08       0.903
  3                    JUNCTION    -0.031    0.050     0  00:00      -0.554        1.07       0.508
  4                    JUNCTION     0.000    0.000     0  00:00           0           0       0.000 ltr
  5                    JUNCTION     0.031    0.031     0  00:00       0.554       0.656       2.168
  8                    JUNCTION     0.050    0.050     0  00:00       0.901        1.08       0.299
  9                    JUNCTION     0.000    0.050     0  00:00           0        1.08       1.029
  10                   JUNCTION    -0.044    0.050     0  00:00      -0.785        1.07       0.285
  12                   JUNCTION     0.000    0.000     0  00:00           0           0       0.000 ltr
  13                   JUNCTION     0.044    0.044     0  00:00       0.785       0.928       2.004
  6                    OUTFALL      0.000    0.031     0  03:52           0       0.642       0.000
  7                    OUTFALL      0.000    0.019     0  00:00           0       0.405       0.000
  11                   OUTFALL      0.000    0.006     0  00:09           0       0.135       0.000
  14                   OUTFALL      0.000    0.044     0  04:44           0       0.909       0.000
  
  
  **********************
  Node Surcharge Summary
  **********************
  
  No nodes were surcharged.
  
  
  *********************
  Node Flooding Summary
  *********************
  
  No nodes were flooded.
  
  
  ***********************
  Outfall Loading Summary
  ***********************
  
  -----------------------------------------------------------
                         Flow       Avg       Max       Total
                         Freq      Flow      Flow      Volume
  Outfall Node           Pcnt       CMS       CMS    10^6 ltr
  -----------------------------------------------------------
  6                    100.00     0.031     0.031       0.642
  7                    100.00     0.019     0.019       0.405
  11                   100.00     0.006     0.006       0.135
  14                   100.00     0.044     0.044       0.909
  -----------------------------------------------------------
  System               100.00     0.100     0.100       2.092
  
  
  *******************
  Street Flow Summary
  *******************
  
  ---------------------------------------------------------------------------------------------------------------------------------------
                                                                                        Peak     Avg.   Bypass     Back     Peak     Peak
                        Peak   Maximum   Maximum                                        Flow     Flow     Flow     Flow  Capture   Bypass
                        Flow    Spread     Depth  Inlet             Inlet     Inlet  Capture  Capture     Freq     Freq  / Inlet     Flow
  Street Conduit         CMS         m         m  Design            Location            Pcnt     Pcnt     Pcnt     Pcnt      CMS      CMS
  ---------------------------------------------------------------------------------------------------------------------------------------
  1                    0.050     3.027     0.061
  2                    0.050     2.587     0.052  CurbOpening       ON-GRADE      1    61.49    61.49   100.00     0.00     0.03     0.02
  6                    0.019     2.045     0.041
  7                    0.050     2.998     0.085
  8                    0.050     2.074     0.066  CurbOpening       ON-GRADE      1    87.11    87.11   100.00     0.00     0.04     0.01
  9                    0.006     0.905     0.043
  
  
  ********************
  Link Flow Summary
  ********************
  
  -----------------------------------------------------------------------------
                                 Maximum  Time of Max   Maximum    Max/    Max/
                                  |Flow|   Occurrence   |Veloc|    Full    Full
  Link                 Type          CMS  days hr:min     m/sec    Flow   Depth
  -----------------------------------------------------------------------------
  1                    CONDUIT     0.050     0  00:01      0.55    0.08    0.40
  2                    CONDUIT     0.050     0  00:00      0.75    0.08    0.34
  4                    CONDUIT     0.000     0  00:00      0.00    0.00    0.02
  5                    CONDUIT     0.031     0  03:52      0.72    0.00    0.04
  6                    CONDUIT     0.019     0  00:00      0.46    0.03    0.27
  7                    CONDUIT     0.050     0  00:00      0.51    0.08    0.49
  8                    CONDUIT     0.050     0  00:00      0.99    0.08    0.38
  9                    CONDUIT     0.006     0  00:09      0.41    0.01    0.25
  10                   CONDUIT     0.000     0  00:00      0.00    0.00    0.02
  11                   CONDUIT     0.044     0  04:44      0.81    0.00    0.05
  
  
  ***************************
  Flow Classification Summary
  ***************************
  
  -------------------------------------------------------------------------------------
                      Adjusted    ---------- Fraction of Time in Flow Class ---------- 
                       /Actual         Up    Down  Sub   Sup   Up    Down  Norm  Inlet 
  Conduit               Length    Dry  Dry   Dry   Crit  Crit  Crit  Crit  Ltd   Ctrl  
  -------------------------------------------------------------------------------------
  1                       1.00   0.00  0.00  0.00  0.00  1.00  0.00  0.00  1.00  0.00
  2                       1.00   0.00  0.00  0.00  0.00  1.00  0.00  0.00  0.00  0.00
  4                       1.00   0.00  1.00  0.00  0.00  0.00  0.00  0.00  0.00  0.00
  5                       1.00   0.00  0.00  0.00  1.00  0.00  0.00  0.00  0.00  0.00
  6                       1.00   0.00  0.00  0.00  0.00  1.00  0.00  0.00  0.00  0.00
  7                       1.00   0.00  0.00  0.00  1.00  0.00  0.00  0.00  1.00  0.00
  8                       1.00   0.00  0.00  0.00  0.00  1.00  0.00  0.00  0.00  0.00
  9                       1.00   0.00  0.00  0.00  1.00  0.00  0.00  0.00  0.00  0.00
  10                      1.00   0.00  1.00  0.00  0.00  0.00  0.00  0.00  0.00  0.00
  11                      1.00   0.00  0.00  0.00  0.00  1.00  0.00  0.00  0.00  0.00
  
  
  *************************
  Conduit Surcharge Summary
  *************************
  
  No conduits were surcharged.
  

  Analysis begun on:  Tue Jun 23 20:57:55 2026
  Analysis ended on:  Tue Jun 23 20:57:55 2026
  Total elapsed time: < 1 sec