
  EPA STORM WATER MANAGEMENT MODEL - VERSION 5.2 (Build 5.2.4)
  ------------------------------------------------------------

  WARNING 04: minimum elevation drop used for Conduit CDM63
  WARNING 04: minimum elevation drop used for Conduit CP4157
  WARNING 04: minimum elevation drop used for Conduit CP5484
  WARNING 04: minimum elevation drop used for Conduit LowSiphDS_C
  WARNING 10: crest elevation raised to downstream invert for regulator Link 70
  WARNING 02: maximum depth increased for Node Bradford
  WARNING 02: maximum depth increased for Node CDM28
  WARNING 02: maximum depth increased for Node CDM29
  WARNING 02: maximum depth increased for Node CDM31
  WARNING 02: maximum depth increased for Node CDM34
  WARNING 02: maximum depth increased for Node SMH-6035
  WARNING 02: maximum depth increased for Node SMH-6048
  WARNING 02: maximum depth increased for Node SMH-6048A
  WARNING 02: maximum depth increased for Node SMH-6049
  WARNING 02: maximum depth increased for Node SMH-6050AA
  WARNING 02: maximum depth increased for Node SMH-6050C
  WARNING 02: maximum depth increased for Node SMH-6226
  WARNING 02: maximum depth increased for Node SMH-6272
  WARNING 02: maximum depth increased for Node SMH-6302
  
  ****************
  Analysis Options
  ****************
  Flow Units ............... CFS
  Process Models:
    Rainfall/Runoff ........ YES
    RDII ................... NO
    Snowmelt ............... NO
    Groundwater ............ NO
    Flow Routing ........... YES
    Ponding Allowed ........ NO
    Water Quality .......... NO
  Infiltration Method ...... GREEN_AMPT
  Flow Routing Method ...... DYNWAVE
  Surcharge Method ......... EXTRAN
  Starting Date ............ 09/10/2003 08:00:00
  Ending Date .............. 09/11/2003 05:00:00
  Antecedent Dry Days ...... 0.0
  Report Time Step ......... 00:15:00
  Wet Time Step ............ 00:05:00
  Dry Time Step ............ 00:15:00
  Routing Time Step ........ 10.00 sec
  Variable Time Step ....... YES
  Maximum Trials ........... 8
  Number of Threads ........ 1
  Head Tolerance ........... 0.005000 ft
  
  
  **************************        Volume         Depth
  Runoff Quantity Continuity     acre-feet        inches
  **************************     ---------       -------
  Total Precipitation ......       569.475         4.200
  Evaporation Loss .........         7.471         0.055
  Infiltration Loss ........       416.973         3.075
  Surface Runoff ...........       142.627         1.052
  Final Storage ............         2.428         0.018
  Continuity Error (%) .....        -0.004
  
  
  **************************        Volume        Volume
  Flow Routing Continuity        acre-feet      10^6 gal
  **************************     ---------     ---------
  Dry Weather Inflow .......        11.446         3.730
  Wet Weather Inflow .......       142.627        46.477
  Groundwater Inflow .......         0.000         0.000
  RDII Inflow ..............         0.000         0.000
  External Inflow ..........         0.000         0.000
  External Outflow .........        83.506        27.212
  Flooding Loss ............        60.337        19.662
  Evaporation Loss .........         0.000         0.000
  Exfiltration Loss ........         0.000         0.000
  Initial Stored Volume ....         0.428         0.140
  Final Stored Volume ......         7.843         2.556
  Continuity Error (%) .....         1.822
  
  
  *************************
  Highest Continuity Errors
  *************************
  Node CDM19 (98.31%)
  Node SMH-6181 (13.43%)
  Node SMH-6209 (9.17%)
  Node 72 (5.99%)
  Node SMH-6288 (4.96%)
  
  
  ***************************
  Time-Step Critical Elements
  ***************************
  Link SP5636 (31.27%)
  Link CP27509 (16.08%)
  Link SP13433 (8.28%)
  Link 2 (6.37%)
  Link SP27435 (5.17%)
  
  
  ********************************
  Highest Flow Instability Indexes
  ********************************
  Link SP3442 (111)
  Link SP5127 (96)
  Link SP5126 (87)
  Link CDM26 (83)
  Link SP27415-1 (82)
  
  
  *********************************
  Most Frequent Nonconverging Nodes
  *********************************
  Node 001 (56.23%)
  Node 010 (56.23%)
  Node 013 (56.23%)
  Node 016 (56.23%)
  Node 019 (56.23%)
  
  
  *************************
  Routing Time Step Summary
  *************************
  Minimum Time Step           :     0.09 sec
  Average Time Step           :     6.27 sec
  Maximum Time Step           :    10.00 sec
  % of Time in Steady State   :     0.00
  Average Iterations per Step :     6.47
  % of Steps Not Converging   :    56.23
  Time Step Frequencies       :
     10.000 -  5.493 sec      :    50.90 %
      5.493 -  3.017 sec      :    36.13 %
      3.017 -  1.657 sec      :     6.19 %
      1.657 -  0.910 sec      :     4.80 %
      0.910 -  0.500 sec      :     1.97 %
  
  
  ***************************
  Subcatchment Runoff Summary
  ***************************
  
  ------------------------------------------------------------------------------------------------------------------------------
                            Total      Total      Total      Total     Imperv       Perv      Total       Total     Peak  Runoff
                           Precip      Runon       Evap      Infil     Runoff     Runoff     Runoff      Runoff   Runoff   Coeff
  Subcatchment                 in         in         in         in         in         in         in    10^6 gal      CFS
  ------------------------------------------------------------------------------------------------------------------------------
  Cat_CSO1                   4.20       0.00       0.05       3.34       1.97       0.00       0.79        2.57    13.94   0.188
  Cat_CSO10_1                4.20       0.00       0.05       3.33       2.01       0.00       0.80        2.15    11.68   0.191
  Cat_CSO10_2                4.20       0.00       0.04       3.50       1.61       0.00       0.64        2.50    13.56   0.153
  Cat_CSO10_3                4.20       0.00       0.07       2.98       2.44       0.17       1.14        0.26     2.11   0.272
  Cat_CSO13_1                4.20       0.00       0.04       2.55       1.61       0.00       1.61        0.25     1.34   0.383
  Cat_CSO13_2                4.20       0.00       0.04       2.52       1.64       0.00       1.64        0.73     3.92   0.391
  Cat_CSO13_3                4.20       0.00       0.06       2.90       2.45       0.00       1.22        1.59     8.62   0.292
  Cat_CSO13_4                4.20       0.00       0.05       3.33       2.01       0.00       0.80        0.88     4.75   0.191
  Cat_CSO13_5                4.20       0.00       0.04       2.44       1.72       0.00       1.72        0.03     0.15   0.410
  Cat_CSO16                  4.20       0.00       0.07       2.61       3.00       0.00       1.50        1.16     6.28   0.357
  Cat_CSO19                  4.20       0.00       0.07       2.71       2.79       0.00       1.40        5.08    27.52   0.332
  Cat_CSO21A_1               4.20       0.00       0.04       2.32       1.83       0.00       1.83        0.08     0.43   0.436
  Cat_CSO21A_10              4.20       0.00       0.06       3.07       2.65       0.00       1.06        0.08     0.43   0.252
  Cat_CSO21A_2               4.20       0.00       0.04       2.35       1.80       0.00       1.80        0.04     0.21   0.429
  Cat_CSO21A_3               4.20       0.00       0.04       2.57       1.58       0.00       1.58        0.10     0.53   0.377
  Cat_CSO21A_4               4.20       0.00       0.04       2.24       1.91       0.00       1.91        0.29     1.54   0.455
  Cat_CSO21A_5               4.20       0.00       0.05       2.06       2.08       0.00       2.08        0.36     1.95   0.496
  Cat_CSO21A_6               4.20       0.00       0.04       2.33       1.82       0.00       1.82        0.26     1.42   0.434
  Cat_CSO21A_7               4.20       0.00       0.08       2.08       3.06       0.49       2.02        0.61     4.26   0.482
  Cat_CSO21A_8               4.20       0.00       0.08       2.26       3.57       0.05       1.83        0.43     2.61   0.436
  Cat_CSO21A_9               4.20       0.00       0.09       0.42       3.67       0.00       3.67        2.55    13.82   0.873
  Cat_CSO21D                 4.20       0.00       0.08       2.41       3.40       0.00       1.70        0.36     1.92   0.404
  Cat_CSO21ED_1              4.20       0.00       0.07       2.61       3.02       0.00       1.51        0.30     1.60   0.360
  Cat_CSO21ED_2              4.20       0.00       0.08       2.55       3.10       0.00       1.55        0.39     2.11   0.369
  Cat_CSO21H_1               4.20       0.00       0.05       3.26       2.15       0.00       0.86        3.29    17.81   0.205
  Cat_CSO21H_2               4.20       0.00       0.07       2.56       3.09       0.00       1.54        1.56     8.45   0.368
  Cat_CSO21H_3               4.20       0.00       0.08       2.39       3.39       0.00       1.69        0.37     2.01   0.403
  Cat_CSO22                  4.20       0.00       0.06       3.01       2.77       0.00       1.11        0.65     3.52   0.264
  Cat_CSO23_1                4.20       0.00       0.06       2.85       2.56       0.00       1.28        0.45     2.45   0.305
  Cat_CSO23_2                4.20       0.00       0.05       3.23       2.24       0.00       0.90        1.96    10.64   0.213
  Cat_CSO24                  4.20       0.00       0.07       2.60       3.04       0.00       1.52        0.55     2.96   0.362
  Cat_CSO25_1                4.20       0.00       0.04       2.44       1.71       0.00       1.71        0.03     0.19   0.408
  Cat_CSO25_2                4.20       0.00       0.04       2.40       1.75       0.00       1.75        0.19     1.00   0.417
  Cat_CSO25_3                4.20       0.00       0.03       2.57       1.59       0.00       1.59        0.00     0.02   0.378
  Cat_CSO25_4                4.20       0.00       0.05       2.01       2.14       0.00       2.14        0.04     0.22   0.508
  Cat_CSO25_5                4.20       0.00       0.05       3.21       2.32       0.00       0.93        0.31     1.67   0.221
  Cat_CSO25_6                4.20       0.00       0.07       2.66       2.92       0.00       1.46        0.19     1.01   0.348
  Cat_CSO25_7                4.20       0.00       0.06       2.73       2.80       0.00       1.40        0.38     2.07   0.333
  Cat_CSO31_1                4.20       0.00       0.04       3.50       1.65       0.00       0.66        0.15     0.80   0.157
  Cat_CSO31_2                4.20       0.00       0.04       3.39       1.89       0.00       0.76        1.08     5.87   0.180
  Cat_CSO35_1                4.20       0.00       0.06       3.16       2.43       0.00       0.97        0.34     1.84   0.231
  Cat_CSO33                  4.20       0.00       0.06       3.13       2.29       0.08       1.00        0.25     1.96   0.237
  Cat_CSO34                  4.20       0.00       0.06       3.18       2.25       0.05       0.95        1.28     8.88   0.225
  Cat_CSO36                  4.20       0.00       0.07       2.82       2.59       0.25       1.28        2.36    18.32   0.306
  Cat_CSO38_1                4.20       0.00       0.06       3.15       2.45       0.00       0.98        0.69     3.74   0.233
  Cat_CSO38_2                4.20       0.00       0.06       3.13       2.50       0.00       1.00        0.97     5.24   0.238
  Cat_WWTP_1                 4.20       0.00       0.04       3.51       1.60       0.00       0.64        0.44     2.38   0.152
  Cat_WWTP_2                 4.20       0.00       0.04       2.24       1.91       0.00       1.91        0.05     0.29   0.454
  Cat_WWTP_3                 4.20       0.00       0.05       1.69       2.45       0.00       2.45        0.02     0.11   0.582
  Cat_WWTP_4                 4.20       0.00       0.04       2.27       1.88       0.00       1.88        0.00     0.02   0.448
  Cat_WWTP_5                 4.20       0.00       0.04       2.11       2.04       0.00       2.04        0.00     0.02   0.485
  Cat_WWTP_6                 4.20       0.00       0.04       2.19       1.97       0.00       1.97        0.00     0.01   0.468
  Cat_WWTP_7                 4.20       0.00       0.06       3.06       2.69       0.00       1.08        0.01     0.03   0.256
  Cat_CSO32_1                4.20       0.00       0.05       3.19       2.36       0.00       0.94        2.06    11.12   0.225
  Cat_CSO32_2                4.20       0.00       0.04       3.36       1.95       0.00       0.78        2.25    12.15   0.186
  Cat_CSO35_2                4.20       0.00       0.05       3.31       2.06       0.00       0.83        1.50     8.14   0.197
  
  
  ******************
  Node Depth Summary
  ******************
  
  ---------------------------------------------------------------------------------
                                 Average  Maximum  Maximum  Time of Max    Reported
                                   Depth    Depth      HGL   Occurrence   Max Depth
  Node                 Type         Feet     Feet     Feet  days hr:min        Feet
  ---------------------------------------------------------------------------------
  503                  JUNCTION     0.00     0.00     5.25     0  00:00        0.00
  517                  JUNCTION     0.00     0.00    14.50     0  00:00        0.00
  70                   JUNCTION    10.90    12.79    10.20     0  07:05       12.70
  71                   JUNCTION    10.58    12.12     9.52     0  07:06       12.03
  72                   JUNCTION     6.79    10.22     9.30     0  05:56        9.47
  942                  JUNCTION     2.50     3.67    11.79     0  04:54        3.64
  955                  JUNCTION     0.84     1.06    18.61     0  07:05        1.06
  Bates                JUNCTION     0.00     0.00     8.40     0  00:00        0.00
  Bradford             JUNCTION     2.98     7.64    16.22     0  08:00        7.64
  Bradford-1           JUNCTION     0.00     0.00     8.91     0  00:00        0.00
  Broadway             JUNCTION     0.00     0.00    32.60     0  00:00        0.00
  CB-4415              JUNCTION     0.19     0.32    13.22     0  08:00        0.32
  CDM10                JUNCTION     0.00     0.00   -16.70     0  00:00        0.00
  CDM11                JUNCTION     0.00     0.00   -15.42     0  00:00        0.00
  CDM12                JUNCTION     0.00     0.00   -15.42     0  00:00        0.00
  CDM13                JUNCTION     0.00     0.00   -15.42     0  00:00        0.00
  CDM14                JUNCTION     8.90    10.66    10.66     0  21:00       10.66
  CDM15                JUNCTION     0.00     0.00    -8.40     0  00:00        0.00
  CDM16                JUNCTION     0.00     0.00    -7.50     0  00:00        0.00
  CDM18                JUNCTION     0.00     0.00    -7.50     0  00:00        0.00
  CDM19                JUNCTION     8.64    10.52    10.57     0  04:50       10.37
  CDM20                JUNCTION    16.18    18.54    10.74     0  04:50       18.34
  CDM23                JUNCTION     3.90     4.62    10.65     0  03:46        4.50
  CDM25                JUNCTION     0.00     0.00     5.50     0  00:00        0.00
  CDM26                JUNCTION     0.00     0.00     6.25     0  00:00        0.00
  CDM27                JUNCTION     0.00     0.00   -11.50     0  00:00        0.00
  CDM28                JUNCTION     0.00     0.00   -11.50     0  00:00        0.00
  CDM29                JUNCTION     0.00     0.00   -11.50     0  00:00        0.00
  CDM30                JUNCTION     0.00     0.00   -21.25     0  00:00        0.00
  CDM31                JUNCTION     0.00     0.00   -21.25     0  00:00        0.00
  CDM32                JUNCTION     0.00     0.00   -21.25     0  00:00        0.00
  CDM34                JUNCTION     0.45     0.78    14.41     0  08:00        0.78
  CDM41                JUNCTION     0.37     1.46     8.10     0  08:02        1.42
  CDM45                JUNCTION     0.39     0.63     3.80     0  08:01        0.63
  CDM46                JUNCTION     0.31     0.48    14.08     0  08:00        0.48
  CDM8                 JUNCTION     0.00     0.00   -16.70     0  00:00        0.00
  CDM9                 JUNCTION     0.00     0.00   -16.70     0  00:00        0.00
  CDM960               JUNCTION     0.95     1.20    16.75     0  07:07        1.20
  DMH-6094             JUNCTION     0.00     0.00    15.00     0  00:00        0.00
  Ferry                JUNCTION     1.73     2.86     7.31     0  09:27        2.86
  Ferry-1              JUNCTION     0.00     0.00     4.60     0  00:00        0.00
  FireStation          JUNCTION     0.00     0.00    10.00     0  00:00        0.00
  Gate_WWTPPS          JUNCTION     3.88     8.65    -3.73     0  08:17        8.54
  GrovelandPS          JUNCTION     0.00     0.00    15.00     0  00:00        0.00
  HighStDiv            JUNCTION     0.00     0.00    25.52     0  00:00        0.00
  LS-24PS              JUNCTION     0.00     0.00    12.41     0  00:00        0.00
  MarginalPS           JUNCTION     0.00     0.00     8.00     0  00:00        0.00
  Middlesex            JUNCTION     0.81     3.02     8.08     0  08:02        2.98
  Middlesex-1          JUNCTION     0.00     0.00     4.50     0  00:00        0.00
  MidSiph1A            JUNCTION    15.45    18.55     3.52     0  07:47       18.54
  MidSiph1B            JUNCTION    11.15    13.79     2.79     0  08:03       13.78
  MidSiph2A            JUNCTION    14.42    18.27     3.24     0  08:02       18.26
  MidSiph2B            JUNCTION    10.68    13.71     2.71     0  08:03       13.71
  NMWS01               JUNCTION     0.67     1.55    11.32     0  08:00        1.55
  SMain                JUNCTION     2.26     3.80    10.39     0  08:00        3.80
  SMain-1              JUNCTION     0.00     0.00     6.55     0  00:00        0.00
  SMH-1368             JUNCTION     0.57     0.89     7.37     0  04:40        0.89
  SMH-1369             JUNCTION     0.45     0.64    22.95     0  04:42        0.64
  SMH-1370             JUNCTION     3.46     6.02    32.05     0  05:55        6.01
  SMH-1371             JUNCTION     4.48     8.22    36.70     0  04:39        8.22
  SMH-1714             JUNCTION     0.23     0.33    57.53     0  08:00        0.33
  SMH-1738             JUNCTION     0.16     0.23    56.93     0  08:01        0.23
  SMH-1947             JUNCTION     0.13     0.18   116.99     0  07:00        0.18
  SMH-2241             JUNCTION     0.28     0.41    46.48     0  07:00        0.41
  SMH-2242             JUNCTION     0.27     0.39    41.19     0  07:00        0.39
  SMH-2245             JUNCTION     0.45     0.62    35.27     0  07:00        0.62
  SMH-2257             JUNCTION     0.28     0.44    44.82     0  08:00        0.44
  SMH-2321             JUNCTION     0.15     0.24    30.74     0  08:00        0.24
  SMH-2328             JUNCTION     0.42     0.75    28.50     0  08:00        0.75
  SMH-2329             JUNCTION     0.28     0.44    30.29     0  08:00        0.44
  SMH-2330             JUNCTION     0.23     0.36    33.96     0  08:00        0.36
  SMH-2331             JUNCTION     0.16     0.26    51.58     0  08:00        0.26
  SMH-2344             JUNCTION     0.17     0.26    26.67     0  08:00        0.26
  SMH-2345             JUNCTION     0.08     0.12    21.63     0  08:00        0.12
  SMH-2346             JUNCTION     0.20     0.31    22.37     0  08:00        0.31
  SMH-2347             JUNCTION     0.17     0.26    29.61     0  08:00        0.26
  SMH-2569             JUNCTION     0.24     0.37    30.32     0  08:00        0.37
  SMH-2775             JUNCTION     0.11     0.16   111.98     0  07:02        0.16
  SMH-2776             JUNCTION     0.13     0.19   113.80     0  07:00        0.19
  SMH-2777             JUNCTION     0.13     0.19   112.99     0  07:01        0.19
  SMH-2778             JUNCTION     0.13     0.19   114.98     0  07:00        0.19
  SMH-2779             JUNCTION     0.13     0.19   115.96     0  07:00        0.19
  SMH-2832             JUNCTION     0.52     0.85    76.17     0  08:00        0.85
  SMH-2872             JUNCTION     0.33     0.57    39.47     0  08:00        0.57
  SMH-2888             JUNCTION     0.51     0.85    47.18     0  08:00        0.85
  SMH-2889             JUNCTION     0.54     0.88    33.49     0  08:00        0.88
  SMH-2933             JUNCTION     0.05     0.06    40.10     0  07:01        0.06
  SMH-2935             JUNCTION     0.04     0.05    33.73     0  07:04        0.05
  SMH-2936             JUNCTION     0.05     0.07    26.78     0  07:59        0.07
  SMH-2937             JUNCTION     0.07     0.08    25.55     0  08:00        0.08
  SMH-2938             JUNCTION     0.07     0.09    28.60     0  07:29        0.09
  SMH-2939             JUNCTION     0.07     0.09    27.65     0  07:59        0.09
  SMH-2972             JUNCTION     0.07     0.09    23.59     0  08:00        0.09
  SMH-3105             JUNCTION     2.53     6.11    21.20     0  06:04        6.11
  SMH-3108             JUNCTION     1.15     2.37    12.82     0  06:04        2.28
  SMH-3115             JUNCTION     2.11     7.14    34.50     0  08:00        7.14
  SMH-3116             JUNCTION     1.79     5.44    29.20     0  06:54        5.44
  SMH-3117             JUNCTION     1.71     4.89    25.05     0  07:26        4.86
  SMH-3175             JUNCTION     0.68     1.14    42.76     0  08:00        1.14
  SMH-3199             JUNCTION     2.67     7.28    18.56     0  07:43        7.25
  SMH-3208             JUNCTION     2.94     6.26    15.52     0  07:47        6.21
  SMH-3243             JUNCTION     0.45     0.75    30.00     0  08:00        0.75
  SMH-3245             JUNCTION     0.44     0.72    39.37     0  08:00        0.72
  SMH-3246             JUNCTION     0.65     1.07    41.12     0  08:00        1.07
  SMH-3247             JUNCTION     0.39     0.63    19.38     0  08:00        0.63
  SMH-3248             JUNCTION     0.42     0.67    12.32     0  08:01        0.67
  SMH-3289             JUNCTION     0.00     0.00    97.45     0  00:00        0.00
  SMH-3290             JUNCTION     0.26     0.44    74.89     0  08:00        0.44
  SMH-3296             JUNCTION     0.16     0.26    60.71     0  08:00        0.26
  SMH-3297             JUNCTION     0.21     0.35    16.80     0  08:00        0.35
  SMH-3384             JUNCTION     0.66     1.07    80.61     0  08:00        1.07
  SMH-3387             JUNCTION     0.50     0.82    67.24     0  08:00        0.82
  SMH-3388             JUNCTION     0.42     0.68    76.28     0  08:00        0.68
  SMH-3390             JUNCTION     0.58     0.93    54.73     0  08:00        0.93
  SMH-3400             JUNCTION     0.48     0.79    50.80     0  08:00        0.79
  SMH-3432             JUNCTION     0.65     1.07   106.20     0  08:00        1.07
  SMH-3433             JUNCTION     0.32     0.52    94.50     0  08:00        0.52
  SMH-3525             JUNCTION     0.35     0.58    33.08     0  08:00        0.58
  SMH-3547             JUNCTION     0.43     0.79    38.05     0  08:00        0.79
  SMH-3548             JUNCTION     0.13     0.26    37.52     0  08:00        0.26
  SMH-3561             JUNCTION     0.76     1.25    41.05     0  08:01        1.25
  SMH-3562             JUNCTION     0.69     1.13    41.95     0  08:01        1.13
  SMH-3566             JUNCTION     1.11     1.68    36.60     0  08:00        1.68
  SMH-3613             JUNCTION     0.55     0.91    27.95     0  08:00        0.91
  SMH-3614             JUNCTION     0.72     1.18    24.28     0  08:00        1.18
  SMH-3615             JUNCTION     0.69     1.13    31.93     0  08:00        1.13
  SMH-3616             JUNCTION     0.50     0.82    35.74     0  08:00        0.82
  SMH-3680             JUNCTION     0.41     0.64    38.95     0  08:00        0.64
  SMH-3689             JUNCTION     5.18     6.03    36.34     0  21:00        6.03
  SMH-3694             JUNCTION     0.00     0.00    15.00     0  00:00        0.00
  SMH-3698             JUNCTION     0.15     0.25    35.25     0  07:00        0.25
  SMH-3720             JUNCTION     1.75     1.87    35.82     0  08:00        1.87
  SMH-3754             JUNCTION     0.28     0.44    37.88     0  08:00        0.44
  SMH-3770             JUNCTION     0.00     0.00    24.35     0  00:00        0.00
  SMH-3775             JUNCTION     0.26     0.42    32.42     0  08:00        0.42
  CDM960A              JUNCTION     0.00     0.00    15.55     0  00:00        0.00
  SMH-3820             JUNCTION     0.51     0.85    57.53     0  08:00        0.85
  SMH-3821             JUNCTION     0.51     0.85    69.61     0  08:00        0.85
  SMH-4272             JUNCTION     0.24     0.32    35.17     0  07:00        0.32
  SMH-4274             JUNCTION     0.23     0.32    27.65     0  07:00        0.32
  SMH-4275             JUNCTION     0.24     0.32    30.82     0  07:00        0.32
  SMH-4336             JUNCTION     0.21     0.27    13.80     0  08:01        0.27
  SMH-4337             JUNCTION     0.15     0.20    13.35     0  08:02        0.19
  SMH-4338             JUNCTION     0.20     0.26    12.86     0  08:02        0.26
  SMH-5001             JUNCTION     0.13     0.19   113.48     0  07:01        0.19
  SMH-5002             JUNCTION     0.13     0.19   112.50     0  07:01        0.19
  SMH-5131             JUNCTION     0.47     0.56    10.11     0  07:13        0.56
  SMH-5178             JUNCTION     0.22     0.32    34.92     0  07:00        0.32
  SMH-5481             JUNCTION     0.13     0.19   118.39     0  07:00        0.19
  SMH-5482             JUNCTION     0.14     0.20   116.51     0  07:00        0.20
  SMH-5483             JUNCTION     0.28     0.41   111.66     0  07:04        0.41
  SMH-5484             JUNCTION     0.38     0.56   115.38     0  07:02        0.56
  SMH-5485             JUNCTION     0.40     0.59   116.44     0  07:00        0.59
  SMH-5486             JUNCTION     0.39     0.58   116.93     0  07:00        0.58
  SMH-5487             JUNCTION     0.41     0.61   117.46     0  07:00        0.61
  SMH-5488             JUNCTION     0.36     0.53   117.88     0  07:00        0.53
  SMH-5489             JUNCTION     0.38     0.56   118.33     0  07:00        0.56
  SMH-5506             JUNCTION     0.38     0.56   115.96     0  07:01        0.56
  SMH-5507             JUNCTION     0.38     0.55   114.79     0  07:02        0.55
  SMH-5508             JUNCTION     0.30     0.44   114.25     0  07:03        0.44
  SMH-5602             JUNCTION     0.66     0.77    38.78     0  08:06        0.77
  SMH-5603             JUNCTION     0.60     0.68    38.04     0  08:06        0.68
  SMH-5604             JUNCTION     0.65     0.75    35.83     0  08:09        0.75
  SMH-5605             JUNCTION     0.65     0.76    37.52     0  08:07        0.76
  SMH-5609             JUNCTION     0.61     0.70    36.54     0  08:08        0.70
  SMH-5610             JUNCTION     0.65     0.76    37.01     0  08:07        0.76
  SMH-5611             JUNCTION     0.65     0.76    36.90     0  08:08        0.76
  SMH-5787             JUNCTION     0.05     0.06    11.60     0  08:00        0.06
  SMH-5797             JUNCTION     0.29     0.47    32.72     0  08:00        0.46
  SMH-5798             JUNCTION     0.29     0.46    18.62     0  08:00        0.46
  SMH-5799             JUNCTION     0.00     0.00    12.65     0  00:00        0.00
  SMH-5807             JUNCTION     0.50     0.69    16.06     0  07:34        0.69
  SMH-5808             JUNCTION     0.41     0.47     8.87     0  07:18        0.47
  SMH-5809             JUNCTION     0.49     0.58     9.40     0  07:16        0.58
  SMH-5810             JUNCTION     0.52     0.62     7.43     0  07:26        0.62
  SMH-5811             JUNCTION     1.18     1.75     3.61     0  08:02        1.74
  SMH-5812             JUNCTION     0.56     0.76    16.29     0  07:32        0.76
  SMH-5813             JUNCTION     0.47     0.66    16.57     0  07:31        0.66
  SMH-5814             JUNCTION     0.91     1.26     4.69     0  07:37        1.26
  SMH-5815             JUNCTION     0.51     0.61     8.46     0  07:20        0.61
  SMH-5816             JUNCTION     0.52     0.62     8.23     0  07:21        0.62
  SMH-5817             JUNCTION     0.49     0.59     7.80     0  07:24        0.59
  SMH-5818             JUNCTION     0.41     0.48     7.01     0  07:27        0.48
  SMH-5819             JUNCTION     0.53     0.71     4.76     0  07:34        0.71
  SMH-5820             JUNCTION     0.42     0.50     5.42     0  07:31        0.50
  SMH-5821             JUNCTION     0.51     0.61     6.02     0  07:29        0.61
  SMH-5822             JUNCTION     0.71     1.03     4.70     0  07:37        1.03
  SMH-5823             JUNCTION     0.78     1.12     4.70     0  07:36        1.12
  SMH-5826             JUNCTION     0.42     0.49     8.69     0  07:19        0.49
  SMH-5827             JUNCTION     0.04     0.05    22.05     0  08:00        0.05
  SMH-5828             JUNCTION     0.51     0.63    15.33     0  07:37        0.63
  SMH-5829             JUNCTION     1.15     1.69     3.63     0  08:02        1.69
  SMH-5830             JUNCTION     2.82     4.66     1.04     0  08:05        4.65
  SMH-5831             JUNCTION     1.72     2.99     3.24     0  08:05        2.98
  SMH-5832             JUNCTION     1.76     3.03     3.23     0  08:05        3.03
  SMH-5833             JUNCTION     1.21     1.88     3.48     0  08:04        1.88
  SMH-5834             JUNCTION     0.55     0.75    22.38     0  07:03        0.75
  SMH-5835             JUNCTION     0.54     0.74    22.57     0  07:02        0.74
  SMH-5836             JUNCTION     0.59     0.80    22.70     0  07:01        0.80
  SMH-5837             JUNCTION     0.56     0.77    22.82     0  07:01        0.77
  SMH-5838             JUNCTION     0.40     0.57    22.97     0  07:00        0.57
  SMH-5839             JUNCTION     0.44     0.60    23.03     0  07:00        0.60
  SMH-5840             JUNCTION     0.45     0.61    23.07     0  07:00        0.61
  SMH-5841             JUNCTION     0.43     0.59    23.42     0  07:00        0.59
  SMH-5842             JUNCTION     0.50     0.68    22.12     0  07:04        0.68
  SMH-5843             JUNCTION     0.50     0.68    21.83     0  07:05        0.68
  SMH-5844             JUNCTION     0.50     0.69    21.49     0  07:06        0.69
  SMH-5845             JUNCTION     0.52     0.71    21.18     0  07:07        0.71
  SMH-5846             JUNCTION     0.55     0.75    21.02     0  07:08        0.75
  SMH-5847             JUNCTION     0.55     0.72    20.81     0  07:09        0.72
  SMH-5848             JUNCTION     0.50     0.68    19.12     0  07:18        0.68
  SMH-5849             JUNCTION     0.51     0.70    19.53     0  07:15        0.70
  SMH-5850             JUNCTION     0.51     0.69    19.86     0  07:14        0.69
  SMH-5851             JUNCTION     0.51     0.70    19.96     0  07:13        0.70
  SMH-5852             JUNCTION     0.52     0.70    20.22     0  07:12        0.70
  SMH-5853             JUNCTION     0.39     0.55    20.29     0  07:11        0.55
  SMH-5854             JUNCTION     0.51     0.69    18.57     0  07:20        0.69
  SMH-5855             JUNCTION     0.52     0.72    18.24     0  07:21        0.72
  SMH-5856             JUNCTION     0.54     0.74    18.06     0  07:23        0.74
  SMH-5857             JUNCTION     0.47     0.64    16.92     0  07:29        0.64
  SMH-5858             JUNCTION     0.49     0.67    17.05     0  07:28        0.67
  SMH-5859             JUNCTION     0.47     0.56     9.89     0  07:14        0.56
  SMH-5860             JUNCTION     0.45     0.52     9.05     0  07:17        0.52
  SMH-5861             JUNCTION     2.87     4.98     2.11     0  08:04        4.97
  SMH-5862             JUNCTION     2.83     4.95     2.22     0  08:04        4.94
  SMH-5863             JUNCTION     2.63     4.71     2.38     0  08:04        4.71
  SMH-5864             JUNCTION     2.83     4.75     1.31     0  08:05        4.74
  SMH-5865             JUNCTION     2.75     4.52     0.69     0  08:06        4.52
  SMH-5866             JUNCTION     2.70     4.38     0.34     0  08:06        4.37
  SMH-5867             JUNCTION     2.90     4.97     1.89     0  08:04        4.96
  SMH-5868             JUNCTION     1.84     3.21     3.07     0  08:04        3.20
  SMH-5869             JUNCTION     1.67     2.91     3.25     0  08:05        2.90
  SMH-5870             JUNCTION     1.34     2.15     3.38     0  08:06        2.14
  SMH-5871             JUNCTION     1.56     2.40     3.32     0  08:06        2.39
  SMH-5872             JUNCTION     1.63     2.71     3.27     0  08:05        2.70
  SMH-5873             JUNCTION     0.40     0.52    15.38     0  07:35        0.52
  SMH-5874             JUNCTION     0.45     0.94    16.28     0  08:00        0.94
  SMH-5875             JUNCTION     0.12     0.24    23.64     0  08:00        0.24
  SMH-5881             JUNCTION     2.91     4.94     1.74     0  08:04        4.94
  SMH-5885             JUNCTION     3.75     8.56    -3.64     0  08:18        8.46
  SMH-5886             JUNCTION     0.48     0.57     9.53     0  07:15        0.57
  SMH-5887             JUNCTION     2.67     4.73     2.51     0  08:03        4.72
  SMH-5888             JUNCTION     0.56     0.70    15.80     0  07:35        0.70
  SMH-5889             JUNCTION     2.64     4.22     0.04     0  08:06        4.21
  SMH-5890             JUNCTION     2.38     3.66    -0.83     0  08:07        3.65
  SMH-5891             JUNCTION     1.79     3.13     3.22     0  08:04        3.13
  SMH-5892             JUNCTION     2.51     3.95    -0.40     0  08:07        3.94
  SMH-5893             JUNCTION     1.78     3.17     2.80     0  08:04        3.16
  SMH-5932             JUNCTION     0.48     0.57    13.39     0  07:03        0.57
  SMH-5933             JUNCTION     0.47     0.56    12.93     0  07:05        0.56
  SMH-5934             JUNCTION     0.47     0.56    12.42     0  07:06        0.56
  SMH-5935             JUNCTION     0.47     0.56    10.39     0  07:12        0.56
  SMH-5936             JUNCTION     0.49     0.58    15.17     0  07:00        0.58
  SMH-5937             JUNCTION     0.52     0.62    14.82     0  07:00        0.62
  SMH-5938             JUNCTION     0.52     0.62    14.36     0  07:01        0.62
  SMH-5939             JUNCTION     0.52     0.62    13.90     0  07:02        0.62
  SMH-5940             JUNCTION     0.61     0.71    15.31     0  07:00        0.71
  SMH-5941             JUNCTION     0.59     0.69    15.31     0  07:00        0.69
  SMH-5947             JUNCTION     0.11     0.14    21.96     0  07:00        0.14
  SMH-5948             JUNCTION     0.42     0.54    15.36     0  07:00        0.54
  SMH-6019             JUNCTION     2.30     3.01    14.92     0  07:53        3.01
  SMH-6020             JUNCTION     2.34     3.07    14.92     0  07:48        3.07
  SMH-6021             JUNCTION     0.00     0.00     8.50     0  00:00        0.00
  SMH-6024             JUNCTION     0.24     0.38    25.48     0  08:00        0.38
  SMH-6026             JUNCTION    10.04    12.33    11.18     0  21:00       12.33
  SMH-6029             JUNCTION     3.83     8.61    -3.69     0  08:17        8.52
  SMH-6030             JUNCTION     0.81     1.05    28.93     0  07:06        1.05
  SMH-6031             JUNCTION     0.82     1.05    28.36     0  07:07        1.05
  SMH-6033             JUNCTION     0.00     0.00     4.87     0  00:00        0.00
  SMH-6035             JUNCTION     0.15     0.52     8.52     0  08:02        0.52
  SMH-6035A            JUNCTION     0.00     0.00     9.00     0  00:00        0.00
  SMH-6037             JUNCTION     0.00     0.00     7.51     0  00:00        0.00
  SMH-6038             JUNCTION     1.12     1.99     9.24     0  07:19        1.97
  SMH-6042             JUNCTION     0.89     1.14    19.99     0  07:04        1.14
  SMH-6043             JUNCTION     1.30     2.02    22.59     0  08:02        2.02
  SMH-6044             JUNCTION     1.04     1.64    20.98     0  08:02        1.64
  SMH-6045             JUNCTION     0.00     0.00    12.70     0  00:00        0.00
  SMH-6046             JUNCTION     0.00     0.00     2.07     0  00:00        0.00
  SMH-6047             JUNCTION     1.40     3.21     6.22     0  08:01        3.21
  SMH-6047A            JUNCTION     0.00     0.00     3.65     0  00:00        0.00
  SMH-6047B            JUNCTION     2.51     5.37     6.13     0  08:01        5.37
  SMH-6048             JUNCTION     0.00     0.00     2.20     0  00:00        0.00
  SMH-6048A            JUNCTION     0.00     0.00     1.40     0  00:00        0.00
  SMH-6049             JUNCTION     0.00     0.00     0.57     0  00:00        0.00
  SMH-6050             JUNCTION     1.64     4.27     6.57     0  08:00        4.27
  SMH-6050A            JUNCTION     0.00     0.00     2.26     0  00:00        0.00
  SMH-6050AA           JUNCTION     0.00     0.00     2.20     0  00:00        0.00
  SMH-6050B            JUNCTION     0.00     0.00     2.20     0  00:00        0.00
  SMH-6050C            JUNCTION     0.00     0.00     3.25     0  00:00        0.00
  SMH-6051             JUNCTION     5.23     8.24     6.74     0  08:00        8.24
  SMH-6051A            JUNCTION    10.55    13.91     6.71     0  07:47       13.89
  SMH-6051B            JUNCTION    10.53    13.84     6.63     0  07:47       13.83
  SMH-6052             JUNCTION     0.55     0.93    10.93     0  08:00        0.93
  SMH-6055             JUNCTION     0.00     0.00    19.36     0  00:00        0.00
  SMH-6057             JUNCTION     0.84     1.10    24.06     0  07:12        1.10
  SMH-6058             JUNCTION     0.86     1.13    23.47     0  07:13        1.13
  SMH-6059             JUNCTION     0.82     1.07    24.65     0  07:10        1.07
  SMH-6060             JUNCTION     0.88     1.14    25.13     0  07:09        1.14
  SMH-6061             JUNCTION     0.87     1.14    25.67     0  07:07        1.14
  SMH-6062             JUNCTION     0.85     1.11    25.40     0  07:08        1.11
  SMH-6063             JUNCTION     0.87     1.14    26.35     0  07:06        1.14
  SMH-6064             JUNCTION     0.87     1.13    25.81     0  07:07        1.13
  SMH-6065             JUNCTION     0.15     0.22    53.87     0  07:00        0.22
  SMH-6066             JUNCTION     0.65     0.77    39.99     0  08:03        0.76
  SMH-6067             JUNCTION     0.55     0.61    45.53     0  08:02        0.61
  SMH-6068             JUNCTION     0.56     0.62    49.47     0  08:02        0.62
  SMH-6069             JUNCTION     0.57     0.64    52.34     0  08:01        0.63
  SMH-6070             JUNCTION     0.00     0.00    15.65     0  00:00        0.00
  SMH-6071             JUNCTION     0.44     0.49    27.06     0  07:00        0.49
  SMH-6072             JUNCTION     0.41     0.55    15.04     0  07:43        0.55
  SMH-6073             JUNCTION     0.85     1.10    26.99     0  07:05        1.10
  SMH-6074             JUNCTION     8.52     8.70    43.47     0  01:20        8.70
  SMH-6075             JUNCTION     0.00     0.00    27.18     0  00:00        0.00
  SMH-6076             JUNCTION     0.37     0.60    28.04     0  08:00        0.60
  SMH-6077             JUNCTION     0.34     0.54    22.99     0  08:00        0.54
  SMH-6078             JUNCTION     0.35     0.59    24.54     0  08:00        0.59
  SMH-6079             JUNCTION     0.38     0.63    23.67     0  08:00        0.63
  SMH-6080             JUNCTION     0.14     0.22    22.16     0  08:00        0.22
  SMH-6119             JUNCTION     0.31     0.36    27.93     0  07:00        0.36
  SMH-6120             JUNCTION     0.31     0.36    28.40     0  07:00        0.36
  SMH-6121             JUNCTION     0.31     0.36    27.49     0  07:00        0.36
  SMH-6122             JUNCTION     0.90     1.15    22.75     0  07:00        1.15
  SMH-6123             JUNCTION     0.90     1.17    22.02     0  07:00        1.17
  SMH-6124             JUNCTION     0.91     1.17    21.81     0  07:01        1.17
  SMH-6125             JUNCTION     0.89     1.15    21.77     0  07:01        1.15
  SMH-6126             JUNCTION     0.88     1.32    14.97     0  07:45        1.32
  SMH-6127             JUNCTION     1.33     1.93    14.94     0  07:51        1.93
  SMH-6128             JUNCTION     0.79     1.31    14.94     0  07:52        1.31
  SMH-6129             JUNCTION     0.12     0.46     8.56     0  08:01        0.46
  SMH-6130             JUNCTION     4.99     5.95    14.92     0  07:42        5.95
  SMH-6131             JUNCTION     4.21     5.14    14.94     0  07:59        5.14
  SMH-6137             JUNCTION     9.70    10.00    35.73     0  01:47       10.00
  SMH-6137A            JUNCTION     0.00     0.00    25.73     0  00:00        0.00
  SMH-6139             JUNCTION     0.27     0.46    16.27     0  08:00        0.46
  SMH-6140             JUNCTION     0.00     0.00    31.03     0  00:00        0.00
  SMH-6141             JUNCTION     0.00     0.00    30.17     0  00:00        0.00
  SMH-6142             JUNCTION     0.73     0.93    27.84     0  07:08        0.93
  SMH-6143             JUNCTION     0.82     1.05    29.46     0  07:05        1.05
  SMH-6144             JUNCTION     4.59     5.86    11.26     0  06:06        5.85
  SMH-6145             JUNCTION     0.39     0.64    31.04     0  07:00        0.64
  SMH-6146             JUNCTION     1.23     1.95    25.74     0  08:00        1.95
  SMH-6147             JUNCTION     1.23     1.97    24.51     0  08:01        1.97
  SMH-6148             JUNCTION     1.34     2.13    23.80     0  08:01        2.13
  SMH-6149             JUNCTION     6.04     7.04    14.94     0  07:41        7.01
  SMH-6150             JUNCTION    12.65    14.63    10.50     0  04:49       14.63
  SMH-6151             JUNCTION     7.73     9.14    10.50     0  04:49        9.14
  SMH-6152             JUNCTION     7.25     8.72    10.74     0  21:00        8.72
  SMH-6153             JUNCTION     6.99     8.49    10.89     0  07:34        8.45
  SMH-6154             JUNCTION     4.22     5.67    11.69     0  04:55        5.64
  SMH-6154A            JUNCTION     4.50     5.95    11.62     0  07:40        5.92
  SMH-6157             JUNCTION     4.15     5.05    14.91     0  07:47        5.05
  SMH-6161             JUNCTION     2.55     5.26    13.51     0  04:45        3.75
  SMH-6163             JUNCTION     3.31     4.79    11.92     0  04:45        4.51
  SMH-6165             JUNCTION     3.26     5.01    12.46     0  07:37        4.97
  SMH-6173             JUNCTION     4.20     8.21    13.63     0  04:48        5.15
  SMH-6174             JUNCTION     0.00     0.00     5.50     0  00:00        0.00
  SMH-6181             JUNCTION    14.43    16.73    10.73     0  04:50       16.52
  SMH-6186             JUNCTION     0.36     0.58    20.06     0  07:00        0.58
  SMH-6187             JUNCTION     0.24     0.38    13.31     0  07:00        0.38
  SMH-6189             JUNCTION     1.57     3.06    15.21     0  08:01        3.06
  SMH-6190             JUNCTION     4.13     4.59    19.60     0  08:00        4.59
  SMH-6190A            JUNCTION     0.56     0.87    16.62     0  08:00        0.87
  SMH-6193             JUNCTION     2.35     3.09    14.92     0  07:48        3.09
  SMH-6194             JUNCTION     5.29     6.27    14.93     0  07:37        6.26
  SMH-6195             JUNCTION     4.70     5.63    14.91     0  07:47        5.63
  SMH-6196             JUNCTION     2.98     3.83    14.94     0  07:56        3.83
  SMH-6197             JUNCTION     1.55     2.19    14.93     0  07:55        2.19
  SMH-6198             JUNCTION     1.82     2.49    14.92     0  07:49        2.49
  SMH-6199             JUNCTION     5.43     6.87    11.21     0  07:26        6.83
  SMH-6200             JUNCTION     5.62     7.11    11.19     0  07:09        7.06
  SMH-6201             JUNCTION     8.92    10.74    10.95     0  04:54       10.69
  SMH-6202             JUNCTION     9.04    10.88    10.93     0  04:54       10.82
  SMH-6203             JUNCTION     8.73    10.54    10.98     0  07:19       10.50
  SMH-6204             JUNCTION    10.65    13.42    11.59     0  21:00       13.42
  SMH-6205             JUNCTION    10.83    13.68    11.66     0  21:00       13.68
  SMH-6206             JUNCTION    11.07    13.20    10.86     0  04:50       13.14
  SMH-6207             JUNCTION     9.86    11.79    10.86     0  04:49       11.69
  SMH-6208             JUNCTION     9.49    11.36    10.88     0  04:54       11.28
  SMH-6209             JUNCTION    13.28    15.30    10.50     0  04:49       15.30
  SMH-6210             JUNCTION     6.58     8.10    11.07     0  07:14        8.05
  SMH-6211             JUNCTION     6.12     7.62    11.21     0  07:46        7.58
  SMH-6212             JUNCTION     0.33     0.52    47.49     0  07:00        0.52
  SMH-6213             JUNCTION     0.32     0.51    63.31     0  07:00        0.51
  SMH-6214             JUNCTION     0.31     0.48    74.98     0  07:00        0.48
  SMH-6215             JUNCTION     0.23     0.34    96.46     0  07:06        0.34
  SMH-6216             JUNCTION     0.35     0.56    91.92     0  07:00        0.56
  SMH-6217             JUNCTION     0.29     0.43   101.48     0  07:05        0.43
  SMH-6218             JUNCTION     0.28     0.41   105.94     0  07:05        0.41
  SMH-6219             JUNCTION     2.35     3.52    11.82     0  04:54        3.47
  SMH-6220             JUNCTION     5.60     7.11    11.31     0  07:45        7.08
  SMH-6221             JUNCTION     0.82     1.39    12.02     0  08:01        1.39
  SMH-6222             JUNCTION     0.53     0.92    15.09     0  07:56        0.92
  SMH-6223             JUNCTION     1.08     1.71    14.95     0  07:54        1.71
  SMH-6224             JUNCTION     0.42     0.68    23.03     0  08:00        0.68
  SMH-6225             JUNCTION     0.81     1.03    18.48     0  07:06        1.03
  SMH-6226             JUNCTION     7.93     8.91    14.91     0  07:47        8.91
  SMH-6226-1           JUNCTION     0.00     0.00     5.50     0  00:00        0.00
  SMH-6227             JUNCTION     0.17     0.27    23.42     0  07:00        0.27
  SMH-6231             JUNCTION     0.00     0.00    21.15     0  00:00        0.00
  SMH-6232             JUNCTION     0.30     0.44   110.08     0  07:04        0.44
  SMH-6233             JUNCTION     4.75     6.21    11.53     0  07:38        6.18
  SMH-6234             JUNCTION     0.89     1.47    13.03     0  08:01        1.47
  SMH-6235             JUNCTION     9.24    11.09    10.91     0  04:54       11.02
  SMH-6236             JUNCTION     4.81     6.16    11.27     0  07:15        6.13
  SMH-6237             JUNCTION     5.07     6.47    11.25     0  07:42        6.42
  SMH-6238             JUNCTION     5.20     6.62    11.24     0  07:45        6.58
  SMH-6239             JUNCTION     6.78     8.44    11.09     0  21:00        8.44
  SMH-6240             JUNCTION     6.46     8.07    11.11     0  07:10        8.04
  SMH-6241             JUNCTION     6.18     7.75    11.14     0  07:18        7.71
  SMH-6242             JUNCTION     5.90     7.43    11.16     0  07:19        7.38
  SMH-6243             JUNCTION     7.90     9.67    11.02     0  07:08        9.63
  SMH-6244             JUNCTION     8.56    10.36    11.01     0  07:10       10.32
  SMH-6245             JUNCTION     7.55     9.45    11.21     0  21:00        9.45
  SMH-6246             JUNCTION    12.14    14.19    10.62     0  04:50       14.12
  SMH-6247             JUNCTION     0.81     1.03    17.48     0  07:07        1.03
  SMH-6248             JUNCTION     1.05     1.60     7.65     0  08:00        1.60
  SMH-6249             JUNCTION     1.07     1.64     7.29     0  08:00        1.64
  SMH-6250             JUNCTION     1.17     1.66     8.11     0  08:00        1.66
  SMH-6251             JUNCTION     1.19     1.68     8.08     0  08:00        1.68
  SMH-6252             JUNCTION     0.91     1.16     9.12     0  07:27        1.16
  SMH-6253             JUNCTION     0.79     1.01    15.56     0  07:08        1.01
  SMH-6254             JUNCTION     0.78     1.00    14.45     0  07:09        1.00
  SMH-6255             JUNCTION     0.86     1.10    12.55     0  07:27        1.10
  SMH-6256             JUNCTION     0.79     1.00    16.55     0  07:08        1.00
  SMH-6257             JUNCTION     2.36     3.81    10.28     0  07:41        3.78
  SMH-6258             JUNCTION     0.23     0.65     8.55     0  08:02        0.65
  SMH-6259             JUNCTION     0.27     0.40    99.80     0  07:05        0.40
  SMH-6260             JUNCTION     0.74     0.88    38.98     0  08:05        0.88
  SMH-6261             JUNCTION     0.65     0.76    39.42     0  08:04        0.76
  SMH-6262             JUNCTION     1.04     1.69     6.60     0  08:01        1.69
  SMH-6263             JUNCTION     2.27     4.14    11.23     0  08:00        4.14
  SMH-6264             JUNCTION     0.95     1.23    27.28     0  07:07        1.23
  SMH-6265             JUNCTION     0.81     1.07    27.06     0  07:05        1.07
  SMH-6269             JUNCTION     0.32     0.51    13.41     0  08:00        0.51
  SMH-6270             JUNCTION     1.00     1.23    19.18     0  07:05        1.23
  SMH-6272             JUNCTION     8.22     8.44    35.76     0  01:47        8.44
  SMH-6273             JUNCTION     0.00     0.00    24.72     0  00:00        0.00
  SMH-6274             JUNCTION     0.00     0.00    20.45     0  00:00        0.00
  SMH-6276             JUNCTION     0.22     0.37    25.95     0  08:00        0.37
  SMH-6277             JUNCTION     0.00     0.00    25.00     0  00:00        0.00
  SMH-6279             JUNCTION     1.72     3.61     3.67     0  08:02        3.60
  SMH-6279A            JUNCTION     0.55     2.25     3.34     0  08:02        2.24
  SMH-6281             JUNCTION     0.00     0.00    19.34     0  00:00        0.00
  SMH-6282             JUNCTION     0.00     0.00    15.00     0  00:00        0.00
  SMH-6283             JUNCTION     0.00     0.00     7.89     0  00:00        0.00
  SMH-6288             JUNCTION    11.73    13.93    10.83     0  04:50       13.67
  SMH-6289             JUNCTION     0.00     0.00    20.71     0  00:00        0.00
  SMH-6290             JUNCTION     0.00     0.00    20.12     0  00:00        0.00
  SMH-6291             JUNCTION     7.36     9.10    11.07     0  07:11        9.04
  SMH-6292             JUNCTION     7.72     9.50    11.07     0  21:00        9.50
  SMH-6293             JUNCTION     0.42     0.67    23.85     0  08:00        0.67
  SMH-6294             JUNCTION     0.84     1.76    12.57     0  07:42        1.73
  SMH-6295             JUNCTION     0.00     0.00    19.37     0  00:00        0.00
  SMH-6296             JUNCTION     0.47     0.64    17.67     0  07:25        0.64
  SMH-6302             JUNCTION     0.78     1.61    12.59     0  08:00        1.61
  SMH-6302A            JUNCTION     0.12     0.42    10.62     0  08:00        0.42
  SMH-6302B            JUNCTION     0.00     0.00    11.28     0  00:00        0.00
  SMH-6303             JUNCTION     0.43     0.84    12.63     0  08:00        0.84
  SMH-6304             JUNCTION     0.82     1.05    29.96     0  07:04        1.05
  SMH-6305             JUNCTION     0.77     0.97    30.57     0  07:03        0.97
  SMH-6306             JUNCTION     0.64     0.73    30.89     0  08:16        0.73
  SMH-6307             JUNCTION     0.70     0.80    31.29     0  08:15        0.80
  SMH-6308             JUNCTION     0.66     0.76    31.63     0  08:15        0.76
  SMH-6309             JUNCTION     0.66     0.76    32.23     0  08:14        0.76
  SMH-6310             JUNCTION     0.66     0.76    32.90     0  08:13        0.76
  SMH-6311             JUNCTION     0.65     0.75    33.60     0  08:12        0.75
  SMH-6312             JUNCTION     0.68     0.78    34.25     0  08:11        0.78
  SMH-6313             JUNCTION     0.59     0.68    35.42     0  08:10        0.68
  SMH-6314             JUNCTION     0.87     1.11    23.02     0  07:00        1.11
  SMH-6315             JUNCTION     0.91     1.18    20.33     0  07:03        1.17
  SMH-6316             JUNCTION     0.77     0.96    20.90     0  07:03        0.96
  SMH-6317             JUNCTION     0.99     1.25    21.35     0  07:02        1.25
  SMH-6318             JUNCTION     0.33     0.52    85.42     0  07:00        0.52
  SMH-6319             JUNCTION     1.53     2.35    26.51     0  08:00        2.35
  SMH-6320             JUNCTION     0.38     0.61    17.26     0  08:01        0.61
  SMH-6321             JUNCTION     0.37     0.59    20.69     0  08:00        0.59
  SMH-6322             JUNCTION     1.08     1.35    19.60     0  07:04        1.34
  SMH-6323             JUNCTION     1.05     1.61     7.03     0  08:00        1.61
  SMH-6324             JUNCTION     0.95     1.66     6.44     0  08:01        1.66
  SMH-6325             JUNCTION     0.31     0.53    14.51     0  08:00        0.53
  SMH-6326             JUNCTION     0.55     0.75    17.37     0  07:27        0.75
  SMH-6429             JUNCTION     0.43     0.51    10.85     0  07:11        0.51
  SMH-6431             JUNCTION     0.49     0.58    11.07     0  07:10        0.58
  SMH-6432             JUNCTION     0.49     0.59    11.23     0  07:10        0.59
  SMH-6433             JUNCTION     0.47     0.55    11.90     0  07:07        0.55
  SMH-6434             JUNCTION     0.49     0.58    11.43     0  07:09        0.58
  SProspect            JUNCTION     0.21     0.77    11.25     0  08:00        0.76
  SProspect-1          JUNCTION     0.00     0.00     9.51     0  00:00        0.00
  WWTPFM               JUNCTION     2.08     8.56    28.56     0  07:18        3.91
  WWTPPS               JUNCTION   101.12  1012.50  1020.50     0  07:47     1012.50
  1                    JUNCTION     2.70     4.44    -7.94     0  08:11        4.26
  LowSiphDS            JUNCTION     0.00     0.00   -12.20     0  00:00        0.00
  J1                   JUNCTION     0.00     0.00     4.45     0  00:00        0.00
  WinterHaleGate_DS    JUNCTION     0.00     0.00    15.01     0  00:00        0.00
  HighGate_DS          JUNCTION     0.00     0.00    27.32     0  00:00        0.00
  BroadwayGate_DS      JUNCTION     0.00     0.00    34.77     0  00:00        0.00
  WinterGate_DS        JUNCTION     0.00     0.00    25.73     0  00:00        0.00
  2                    JUNCTION     0.00     0.00    25.00     0  00:00        0.00
  3                    JUNCTION     0.00     0.00     2.30     0  00:00        0.00
  4                    JUNCTION     0.00     0.00     0.76     0  00:00        0.00
  001                  OUTFALL      4.60     4.60    10.50     0  00:00        4.60
  010                  OUTFALL      6.17     6.17    10.50     0  00:00        6.17
  013                  OUTFALL     11.50    11.50    10.50     0  00:00       11.50
  016                  OUTFALL      2.32     2.32    10.50     0  00:00        2.32
  019                  OUTFALL      0.00     0.00    14.00     0  00:00        0.00
  021H                 OUTFALL      1.14     1.14    10.50     0  00:00        1.14
  022                  OUTFALL      0.00     0.00    14.40     0  00:00        0.00
  023                  OUTFALL      7.80     7.80    10.50     0  00:00        7.80
  024                  OUTFALL      8.50     8.50    10.50     0  00:00        8.50
  025                  OUTFALL      4.84     4.84    10.50     0  00:00        4.84
  031                  OUTFALL      2.78     2.78    10.50     0  00:00        2.78
  032                  OUTFALL      4.63     4.63    10.50     0  00:00        4.63
  033                  OUTFALL      4.65     4.65    10.50     0  00:00        4.65
  035                  OUTFALL      6.20     6.20    10.50     0  00:00        6.20
  036                  OUTFALL      0.00     0.00     2.38     0  00:00        0.00
  034                  OUTFALL      6.31     6.31    10.50     0  00:00        6.31
  038                  OUTFALL      4.65     4.65    10.50     0  00:00        4.65
  OFCDM1               OUTFALL      0.00     0.00    14.40     0  00:00        0.00
  021D                 OUTFALL      5.72     5.72    10.50     0  00:00        5.72
  021E                 OUTFALL      3.10     3.10    10.50     0  00:00        3.10
  021A                 OUTFALL      9.95     9.95    10.50     0  00:00        9.95
  WWTP-1               OUTFALL      1.84     2.99    21.99     0  07:18        2.98
  MarginalPS_WW        STORAGE      0.00     0.00     1.50     0  00:00        0.00
  WWTPPSwetwell        STORAGE      9.07    13.51    -7.99     0  08:11       13.30
  
  
  *******************
  Node Inflow Summary
  *******************
  
  -------------------------------------------------------------------------------------------------
                                  Maximum  Maximum                  Lateral       Total        Flow
                                  Lateral    Total  Time of Max      Inflow      Inflow     Balance
                                   Inflow   Inflow   Occurrence      Volume      Volume       Error
  Node                 Type           CFS      CFS  days hr:min    10^6 gal    10^6 gal     Percent
  -------------------------------------------------------------------------------------------------
  503                  JUNCTION      0.00     0.00     0  00:00           0           0       0.000 gal
  517                  JUNCTION      0.00     0.00     0  00:00           0           0       0.000 gal
  70                   JUNCTION      0.00     4.35     0  07:18           0       0.977       0.310
  71                   JUNCTION      0.00     4.35     0  07:18           0       0.974       0.214
  72                   JUNCTION      0.00     1.36     0  08:01           0         0.1       6.372
  942                  JUNCTION      0.00    34.11     0  08:01           0        6.36       0.341
  955                  JUNCTION      0.00     7.11     0  07:05           0        1.63       0.028
  Bates                JUNCTION      0.00     0.00     0  00:00           0           0       0.000 gal
  Bradford             JUNCTION      0.00    23.53     0  08:00           0        4.43      -0.002
  Bradford-1           JUNCTION      0.00     0.00     0  00:00           0           0       0.000 gal
  Broadway             JUNCTION      0.00     0.00     0  00:00           0           0       0.000 gal
  CB-4415              JUNCTION      0.00     4.77     0  08:00           0       0.885      -0.005
  CDM10                JUNCTION      0.00     0.00     0  00:00           0           0       0.000 gal
  CDM11                JUNCTION      0.00     0.00     0  00:00           0           0       0.000 gal
  CDM12                JUNCTION      0.00     0.00     0  00:00           0           0       0.000 gal
  CDM13                JUNCTION      0.00     0.00     0  00:00           0           0       0.000 gal
  CDM14                JUNCTION      0.00    21.61     0  04:15           0         1.3       4.025
  CDM15                JUNCTION      0.00     0.00     0  00:00           0           0       0.000 gal
  CDM16                JUNCTION      0.00     0.00     0  00:00           0           0       0.000 gal
  CDM18                JUNCTION      0.00     0.00     0  00:00           0           0       0.000 gal
  CDM19                JUNCTION      0.00    21.56     0  04:49           0        0.17    5803.735
  CDM20                JUNCTION      0.00    16.95     0  03:21           0       0.628       4.059
  CDM23                JUNCTION      0.00    27.26     0  07:42           0        5.13       0.945
  CDM25                JUNCTION      0.00     0.00     0  00:00           0           0       0.000 gal
  CDM26                JUNCTION      0.00     0.00     0  00:00           0           0       0.000 gal
  CDM27                JUNCTION      0.00     0.00     0  00:00           0           0       0.000 gal
  CDM28                JUNCTION      0.00     0.00     0  00:00           0           0       0.000 gal
  CDM29                JUNCTION      0.00     0.00     0  00:00           0           0       0.000 gal
  CDM30                JUNCTION      0.00     0.00     0  00:00           0           0       0.000 gal
  CDM31                JUNCTION      0.00     0.00     0  00:00           0           0       0.000 gal
  CDM32                JUNCTION      0.00     0.00     0  00:00           0           0       0.000 gal
  CDM34                JUNCTION      0.00     6.87     0  08:00           0        1.34       0.002
  CDM41                JUNCTION      8.96     8.96     0  08:00        1.33        1.33       0.001
  CDM45                JUNCTION      0.00     2.55     0  08:00           0       0.527       0.014
  CDM46                JUNCTION      2.56     2.56     0  08:00       0.527       0.527       0.003
  CDM8                 JUNCTION      0.00     0.00     0  00:00           0           0       0.000 gal
  CDM9                 JUNCTION      0.00     0.00     0  00:00           0           0       0.000 gal
  CDM960               JUNCTION      0.00     7.11     0  07:07           0        1.63       0.039
  DMH-6094             JUNCTION      0.00     0.00     0  00:00           0           0       0.000 gal
  Ferry                JUNCTION      0.00     6.71     0  04:40           0        1.73      -0.000
  Ferry-1              JUNCTION      0.00     0.00     0  00:00           0           0       0.000 gal
  FireStation          JUNCTION      0.00     0.00     0  00:00           0           0       0.000 gal
  Gate_WWTPPS          JUNCTION      0.00    92.06     0  08:08           0        17.6      -0.004
  GrovelandPS          JUNCTION      0.25     0.25     0  13:00      0.0874      0.0874       0.000
  HighStDiv            JUNCTION      0.00     0.00     0  00:00           0           0       0.000 gal
  LS-24PS              JUNCTION      0.00     0.25     0  08:03           0      0.0661       0.000
  MarginalPS           JUNCTION      0.00     0.00     0  00:00           0           0       0.000 gal
  Middlesex            JUNCTION      0.00     8.82     0  08:00           0        1.33      -0.001
  Middlesex-1          JUNCTION      0.00     0.00     0  00:00           0           0       0.000 gal
  MidSiph1A            JUNCTION      0.00    21.30     0  05:09           0        5.13       0.310
  MidSiph1B            JUNCTION      0.00    21.30     0  05:09           0        5.12       0.246
  MidSiph2A            JUNCTION      0.00    15.65     0  08:02           0        1.31       1.231
  MidSiph2B            JUNCTION      0.00    15.65     0  08:02           0        1.32       0.984
  NMWS01               JUNCTION      1.95     1.95     0  08:00       0.373       0.373       0.010
  SMain                JUNCTION      0.00    10.15     0  08:00           0        1.92       0.002
  SMain-1              JUNCTION      0.00     0.00     0  00:00           0           0       0.000 gal
  SMH-1368             JUNCTION      0.00     6.72     0  04:40           0        1.73       0.004
  SMH-1369             JUNCTION      0.00     6.72     0  04:42           0        1.73       0.001
  SMH-1370             JUNCTION      0.00     6.72     0  04:40           0        1.73       0.006
  SMH-1371             JUNCTION     18.66    18.66     0  08:00        2.53        2.53      -0.002
  SMH-1714             JUNCTION      0.51     0.51     0  08:00       0.118       0.118       0.008
  SMH-1738             JUNCTION      0.00     0.51     0  08:00           0       0.118       0.009
  SMH-1947             JUNCTION      0.00     0.26     0  07:00           0      0.0614       0.078
  SMH-2241             JUNCTION      1.80     1.80     0  07:00       0.435       0.435       0.010
  SMH-2242             JUNCTION      0.00     1.80     0  07:00           0       0.435       0.020
  SMH-2245             JUNCTION      0.00     1.80     0  07:00           0       0.435       0.031
  SMH-2257             JUNCTION      3.96     3.96     0  08:00       0.797       0.797       0.004
  SMH-2321             JUNCTION      1.05     1.05     0  08:00       0.208       0.208       0.002
  SMH-2328             JUNCTION      3.00     3.00     0  08:00       0.565       0.565       0.002
  SMH-2329             JUNCTION      0.00     2.13     0  08:00           0       0.415       0.005
  SMH-2330             JUNCTION      0.00     2.13     0  08:00           0       0.415       0.004
  SMH-2331             JUNCTION      2.13     2.13     0  08:00       0.415       0.415       0.001
  SMH-2344             JUNCTION      0.00     1.79     0  08:00           0       0.375      -0.002
  SMH-2345             JUNCTION      0.00     1.05     0  08:00           0       0.208      -0.018
  SMH-2346             JUNCTION      0.00     1.05     0  08:00           0       0.208       0.009
  SMH-2347             JUNCTION      0.00     2.13     0  08:00           0       0.415       0.003
  SMH-2569             JUNCTION      1.79     1.79     0  08:00       0.375       0.375       0.003
  SMH-2775             JUNCTION      0.00     0.26     0  07:01           0      0.0612       0.056
  SMH-2776             JUNCTION      0.00     0.26     0  07:00           0      0.0613       0.060
  SMH-2777             JUNCTION      0.00     0.26     0  07:01           0      0.0612       0.032
  SMH-2778             JUNCTION      0.00     0.26     0  07:00           0      0.0613       0.067
  SMH-2779             JUNCTION      0.00     0.26     0  07:00           0      0.0614       0.049
  SMH-2832             JUNCTION     27.77    27.77     0  08:00        5.18        5.18       0.000
  SMH-2872             JUNCTION      6.35     6.35     0  08:00        1.19        1.19      -0.002
  SMH-2888             JUNCTION      0.00    27.76     0  08:00           0        5.18       0.001
  SMH-2889             JUNCTION      0.00    27.76     0  08:00           0        5.18       0.002
  SMH-2933             JUNCTION      0.03     0.03     0  08:00      0.0123      0.0123       0.026
  SMH-2935             JUNCTION      0.00     0.03     0  07:01           0      0.0123       0.041
  SMH-2936             JUNCTION      0.00     0.05     0  07:58           0      0.0164       0.080
  SMH-2937             JUNCTION      0.00     0.09     0  08:00           0      0.0287       0.065
  SMH-2938             JUNCTION      0.05     0.05     0  07:29      0.0164      0.0164       0.054
  SMH-2939             JUNCTION      0.00     0.05     0  07:29           0      0.0164       0.134
  SMH-2972             JUNCTION      0.00     0.09     0  08:00           0      0.0286       0.064
  SMH-3105             JUNCTION      0.00    13.61     0  07:20           0        2.65       0.004
  SMH-3108             JUNCTION      0.00    11.62     0  09:07           0        2.53      -0.002
  SMH-3115             JUNCTION     14.12    14.12     0  08:00        2.66        2.66       0.001
  SMH-3116             JUNCTION      0.00    14.12     0  08:00           0        2.66       0.003
  SMH-3117             JUNCTION      0.00    13.61     0  07:26           0        2.65       0.002
  SMH-3175             JUNCTION     13.60    13.60     0  08:00        2.53        2.53       0.001
  SMH-3199             JUNCTION     12.03    12.03     0  08:00        2.33        2.33       0.000
  SMH-3208             JUNCTION      0.00    12.03     0  08:00           0        2.33       0.111
  SMH-3243             JUNCTION      0.00    13.60     0  08:00           0        2.52       0.001
  SMH-3245             JUNCTION      0.00    13.60     0  08:00           0        2.53       0.001
  SMH-3246             JUNCTION      0.00    13.60     0  08:00           0        2.53       0.001
  SMH-3247             JUNCTION      0.00    13.60     0  08:00           0        2.52       0.001
  SMH-3248             JUNCTION      0.00    13.60     0  08:00           0        2.52      -0.026
  SMH-3289             JUNCTION      0.00     0.00     0  00:00           0           0       0.000 gal
  SMH-3290             JUNCTION      4.77     4.77     0  08:00       0.885       0.885       0.001
  SMH-3296             JUNCTION      0.00     4.77     0  08:00           0       0.885       0.000
  SMH-3297             JUNCTION      0.00     4.77     0  08:00           0       0.885       0.000
  SMH-3384             JUNCTION      0.00     8.31     0  08:00           0        1.59       0.007
  SMH-3387             JUNCTION      0.00     8.31     0  08:00           0        1.58       0.004
  SMH-3388             JUNCTION      0.00     8.31     0  08:00           0        1.58       0.003
  SMH-3390             JUNCTION      0.00     8.31     0  08:00           0        1.58       0.004
  SMH-3400             JUNCTION      0.00     8.31     0  08:00           0        1.58       0.003
  SMH-3432             JUNCTION      8.31     8.31     0  08:00        1.59        1.59       0.005
  SMH-3433             JUNCTION      0.00     8.31     0  08:00           0        1.59       0.004
  SMH-3525             JUNCTION     23.54    23.54     0  08:00        4.43        4.43       0.000
  SMH-3547             JUNCTION      1.97     1.97     0  08:00       0.255       0.255       0.007
  SMH-3548             JUNCTION      0.00     1.97     0  08:00           0       0.255       0.001
  SMH-3561             JUNCTION      0.00     8.31     0  08:01           0        1.58       0.009
  SMH-3562             JUNCTION      0.00     8.31     0  08:01           0        1.58       0.004
  SMH-3566             JUNCTION      0.00     8.31     0  08:01           0        1.58       0.044
  SMH-3613             JUNCTION      0.00    10.15     0  08:00           0        1.92       0.003
  SMH-3614             JUNCTION      0.00    10.15     0  08:00           0        1.92       0.004
  SMH-3615             JUNCTION      0.00    10.15     0  08:00           0        1.92       0.004
  SMH-3616             JUNCTION      1.84    10.15     0  08:00        0.34        1.92       0.003
  SMH-3680             JUNCTION      8.80     8.80     0  08:00        1.74        1.74       0.005
  SMH-3689             JUNCTION      0.00     8.78     0  08:00           0        1.74       0.668
  SMH-3694             JUNCTION      0.00     0.00     0  00:00           0           0       0.000 gal
  SMH-3698             JUNCTION      1.65     1.65     0  07:00       0.317       0.317       0.001
  SMH-3720             JUNCTION      5.44     5.44     0  08:00        1.07        1.07       0.255
  SMH-3754             JUNCTION      3.65     3.65     0  08:00       0.706       0.706       0.004
  SMH-3770             JUNCTION      0.00     0.00     0  00:00           0           0       0.000 gal
  SMH-3775             JUNCTION      2.48     2.48     0  08:00       0.466       0.466       0.001
  CDM960A              JUNCTION      0.00     0.00     0  00:00           0           0       0.000 gal
  SMH-3820             JUNCTION      0.00    27.76     0  08:00           0        5.18       0.001
  SMH-3821             JUNCTION      0.00    27.76     0  08:00           0        5.18       0.001
  SMH-4272             JUNCTION      1.38     1.38     0  07:00        0.37        0.37       0.018
  SMH-4274             JUNCTION      0.00     1.38     0  07:00           0        0.37       0.030
  SMH-4275             JUNCTION      0.00     1.38     0  07:00           0        0.37       0.036
  SMH-4336             JUNCTION      0.25     0.25     0  08:00      0.0662      0.0662       0.047
  SMH-4337             JUNCTION      0.00     0.25     0  08:01           0      0.0662       0.056
  SMH-4338             JUNCTION      0.00     0.25     0  08:02           0      0.0662       0.065
  SMH-5001             JUNCTION      0.00     0.26     0  07:00           0      0.0613       0.031
  SMH-5002             JUNCTION      0.00     0.26     0  07:01           0      0.0612       0.033
  SMH-5131             JUNCTION      0.00     0.83     0  07:13           0       0.243       0.167
  SMH-5178             JUNCTION      0.00     1.80     0  07:00           0       0.434       0.013
  SMH-5481             JUNCTION      0.26     0.26     0  07:00      0.0615      0.0615       0.030
  SMH-5482             JUNCTION      0.00     0.26     0  07:00           0      0.0614       0.039
  SMH-5483             JUNCTION      0.00     1.90     0  07:03           0       0.427       0.029
  SMH-5484             JUNCTION      0.00     1.90     0  07:01           0       0.427       0.035
  SMH-5485             JUNCTION      0.00     1.90     0  07:00           0       0.428       0.039
  SMH-5486             JUNCTION      0.00     1.90     0  07:00           0       0.428       0.044
  SMH-5487             JUNCTION      0.00     1.90     0  07:00           0       0.428       0.035
  SMH-5488             JUNCTION      0.00     1.90     0  07:00           0       0.428       0.026
  SMH-5489             JUNCTION      1.90     1.90     0  07:00       0.428       0.428       0.011
  SMH-5506             JUNCTION      0.00     1.90     0  07:01           0       0.428       0.035
  SMH-5507             JUNCTION      0.00     1.90     0  07:02           0       0.427       0.035
  SMH-5508             JUNCTION      0.00     1.90     0  07:02           0       0.427       0.028
  SMH-5602             JUNCTION      0.00     1.21     0  08:05           0       0.313       0.109
  SMH-5603             JUNCTION      0.00     1.21     0  08:06           0       0.313      -0.005
  SMH-5604             JUNCTION      0.00     1.21     0  08:08           0       0.312       0.022
  SMH-5605             JUNCTION      0.00     1.21     0  08:06           0       0.313       0.059
  SMH-5609             JUNCTION      0.00     1.21     0  08:08           0       0.312       0.072
  SMH-5610             JUNCTION      0.00     1.21     0  08:07           0       0.313       0.016
  SMH-5611             JUNCTION      0.00     1.21     0  08:07           0       0.313       0.062
  SMH-5787             JUNCTION      0.00     0.09     0  08:00           0      0.0286       0.055
  SMH-5797             JUNCTION      6.89     6.89     0  08:00        1.34        1.34       0.001
  SMH-5798             JUNCTION      0.00     6.88     0  08:00           0        1.34       0.005
  SMH-5799             JUNCTION      0.00     0.00     0  00:00           0           0       0.000 gal
  SMH-5807             JUNCTION      0.00     1.67     0  07:32           0       0.447       0.065
  SMH-5808             JUNCTION      0.00     0.96     0  07:17           0       0.286       0.127
  SMH-5809             JUNCTION      0.00     0.88     0  07:15           0       0.258       0.068
  SMH-5810             JUNCTION      0.00     0.96     0  07:24           0       0.284       0.273
  SMH-5811             JUNCTION      0.00     7.82     0  07:41           0        1.61       0.066
  SMH-5812             JUNCTION      0.00     1.67     0  07:31           0       0.448       0.087
  SMH-5813             JUNCTION      0.00     1.67     0  07:29           0       0.448       0.052
  SMH-5814             JUNCTION      0.00     7.83     0  07:37           0        1.62       0.060
  SMH-5815             JUNCTION      0.00     0.96     0  07:19           0       0.285       0.125
  SMH-5816             JUNCTION      0.00     0.96     0  07:20           0       0.285       0.130
  SMH-5817             JUNCTION      0.00     0.96     0  07:22           0       0.285       0.212
  SMH-5818             JUNCTION      0.00     0.96     0  07:26           0       0.283       0.135
  SMH-5819             JUNCTION      0.00     0.96     0  07:31           0       0.281       0.144
  SMH-5820             JUNCTION      0.00     0.96     0  07:30           0       0.282       0.172
  SMH-5821             JUNCTION      0.00     0.96     0  07:27           0       0.283       0.355
  SMH-5822             JUNCTION      0.00     0.98     0  08:08           0       0.281       0.076
  SMH-5823             JUNCTION      0.00     1.03     0  08:07           0       0.281       0.111
  SMH-5826             JUNCTION      0.00     0.96     0  07:18           0       0.286       0.047
  SMH-5827             JUNCTION      0.00     0.09     0  08:00           0      0.0286       0.034
  SMH-5828             JUNCTION      0.00     2.24     0  07:35           0       0.679       0.043
  SMH-5829             JUNCTION      0.00     7.83     0  07:38           0        1.61       0.163
  SMH-5830             JUNCTION      0.00    92.45     0  08:05           0        17.6       0.014
  SMH-5831             JUNCTION      0.00     8.60     0  08:20           0        1.61       0.025
  SMH-5832             JUNCTION      0.00     8.70     0  08:21           0        1.61       0.014
  SMH-5833             JUNCTION      0.00     7.80     0  07:41           0        1.61      -0.050
  SMH-5834             JUNCTION      0.00     1.61     0  07:02           0       0.434       0.112
  SMH-5835             JUNCTION      0.00     1.61     0  07:01           0       0.435       0.079
  SMH-5836             JUNCTION      0.00     1.61     0  07:01           0       0.435       0.088
  SMH-5837             JUNCTION      0.00     1.61     0  07:00           0       0.435       0.057
  SMH-5838             JUNCTION      0.00     1.61     0  07:00           0       0.435       0.024
  SMH-5839             JUNCTION      0.00     1.61     0  07:00           0       0.436       0.028
  SMH-5840             JUNCTION      0.00     1.61     0  07:00           0       0.436       0.051
  SMH-5841             JUNCTION      0.00     1.61     0  07:00           0       0.436       0.068
  SMH-5842             JUNCTION      0.00     1.61     0  07:03           0       0.434       0.099
  SMH-5843             JUNCTION      0.00     1.61     0  07:04           0       0.433       0.099
  SMH-5844             JUNCTION      0.00     1.61     0  07:05           0       0.433       0.111
  SMH-5845             JUNCTION      0.00     1.61     0  07:06           0       0.432       0.109
  SMH-5846             JUNCTION      0.05     1.67     0  07:08      0.0206       0.453       0.078
  SMH-5847             JUNCTION      0.00     1.67     0  07:09           0       0.452       0.128
  SMH-5848             JUNCTION      0.00     1.67     0  07:16           0        0.45       0.094
  SMH-5849             JUNCTION      0.00     1.67     0  07:14           0       0.451       0.090
  SMH-5850             JUNCTION      0.00     1.67     0  07:13           0       0.451       0.053
  SMH-5851             JUNCTION      0.00     1.67     0  07:12           0       0.451       0.059
  SMH-5852             JUNCTION      0.00     1.67     0  07:11           0       0.451       0.058
  SMH-5853             JUNCTION      0.00     1.67     0  07:10           0       0.452       0.051
  SMH-5854             JUNCTION      0.00     1.67     0  07:18           0        0.45       0.102
  SMH-5855             JUNCTION      0.00     1.67     0  07:20           0       0.449       0.067
[...]
  SP5159                  1.00   0.00  0.02  0.00  0.98  0.00  0.00  0.00  0.01  0.00
  SP5504                  1.00   0.00  0.00  0.00  0.98  0.00  0.00  0.01  0.02  0.00
  SP5505                  1.00   0.00  0.01  0.00  0.98  0.00  0.00  0.00  0.10  0.00
  SP5506                  1.00   0.02  0.00  0.00  0.98  0.00  0.00  0.00  0.00  0.00
  SP5507                  1.00   0.01  0.00  0.00  0.98  0.00  0.00  0.01  0.09  0.00
  SP5508                  1.00   0.01  0.00  0.00  0.98  0.00  0.00  0.01  0.00  0.00
  SP5509                  1.00   0.03  0.00  0.00  0.97  0.00  0.00  0.01  0.00  0.00
  SP5510                  1.00   0.03  0.00  0.00  0.96  0.00  0.00  0.01  0.00  0.00
  SP5511                  1.00   0.04  0.00  0.00  0.00  0.00  0.95  0.00  0.00  0.00
  SP5513                  1.00   0.02  0.00  0.00  0.97  0.00  0.00  0.01  0.00  0.00
  SP5514                  1.00   0.03  0.00  0.00  0.97  0.00  0.00  0.01  0.35  0.00
  SP5515                  1.00   0.00  0.03  0.00  0.97  0.00  0.00  0.00  0.11  0.00
  SP5516                  1.00   0.00  0.00  0.00  0.99  0.00  0.00  0.01  0.17  0.00
  SP5517                  1.00   0.01  0.00  0.00  0.98  0.00  0.00  0.00  0.01  0.00
  SP5518                  1.00   0.01  0.00  0.00  0.33  0.00  0.00  0.66  0.00  0.00
  SP5519                  1.00   0.00  0.00  0.00  0.99  0.00  0.00  0.01  0.35  0.00
  SP5520                  1.00   0.00  0.00  0.00  0.99  0.00  0.00  0.01  0.32  0.00
  SP5521                  1.13   0.08  0.00  0.00  0.92  0.00  0.00  0.01  0.07  0.00
  SP5522                  1.83   0.08  0.00  0.00  0.91  0.00  0.00  0.00  0.00  0.00
  SP5523                  1.00   0.07  0.01  0.00  0.61  0.00  0.00  0.30  0.00  0.00
  SP5524                  1.00   0.02  0.00  0.00  0.97  0.00  0.00  0.01  0.34  0.00
  SP5525                  1.00   0.03  0.00  0.00  0.96  0.00  0.00  0.01  0.45  0.00
  SP5526                  1.00   0.04  0.00  0.00  0.95  0.00  0.00  0.01  0.01  0.00
  SP5527                  1.00   0.06  0.00  0.00  0.81  0.00  0.00  0.12  0.01  0.00
  SP5528                  1.00   0.07  0.00  0.00  0.54  0.00  0.00  0.39  0.00  0.00
  SP5531                  1.00   0.00  0.00  0.00  0.00  1.00  0.00  0.00  0.98  0.00
  SP5532                  1.00   0.00  0.00  0.00  0.00  1.00  0.00  0.00  0.99  0.00
  SP5533                  1.00   0.00  0.00  0.00  0.00  1.00  0.00  0.00  0.00  0.00
  SP5542                  1.06   0.00  0.00  0.00  0.00  1.00  0.00  0.00  0.00  0.00
  SP5543                  1.29   0.00  0.00  0.00  0.00  1.00  0.00  0.00  0.99  0.00
  SP5547                  1.18   0.00  0.02  0.00  0.00  0.98  0.00  0.00  0.73  0.00
  SP5548                  1.19   0.00  0.00  0.00  0.00  1.00  0.00  0.00  0.00  0.00
  SP5554                  1.00   0.01  0.00  0.00  0.06  0.93  0.00  0.00  0.96  0.00
  SP5555                  1.00   0.01  0.00  0.00  0.00  0.98  0.00  0.00  0.00  0.00
  SP5556                  1.00   0.01  0.00  0.00  0.00  0.98  0.00  0.00  0.97  0.00
  SP5557                  1.00   0.00  0.00  0.00  1.00  0.00  0.00  0.00  0.93  0.00
  SP5558                  1.00   0.00  0.00  0.00  1.00  0.00  0.00  0.00  0.03  0.00
  SP5559                  1.00   0.00  0.00  0.00  1.00  0.00  0.00  0.00  0.23  0.00
  SP5560                  1.00   0.01  0.00  0.00  0.99  0.00  0.00  0.00  0.70  0.00
  SP5561                  1.00   0.01  0.00  0.00  0.99  0.00  0.00  0.00  0.00  0.00
  SP5562                  1.00   0.01  0.00  0.00  0.05  0.94  0.00  0.00  0.02  0.00
  SP5563                  1.00   0.00  0.00  0.00  1.00  0.00  0.00  0.00  0.03  0.00
  SP5564                  1.00   0.00  0.00  0.00  1.00  0.00  0.00  0.00  0.58  0.00
  SP5608                 27.63   0.00  0.00  0.00  0.00  1.00  0.00  0.00  0.99  0.00
  SP5610                  1.00   0.00  0.00  0.00  0.48  0.52  0.00  0.00  1.00  0.00
  SP5632                  2.42   0.00  0.00  0.00  1.00  0.00  0.00  0.00  0.00  0.00
  SP5633                  7.81   0.00  0.00  0.00  0.00  0.00  0.00  1.00  0.00  0.00
  SP5634                 10.87   0.00  0.00  0.00  0.69  0.09  0.00  0.22  0.77  0.00
  SP5635                  1.00   0.00  0.00  0.00  1.00  0.00  0.00  0.00  0.11  0.00
  SP5636                  3.01   0.00  0.00  0.00  0.04  0.96  0.00  0.00  0.61  0.00
  SP5636-54in             3.52   0.80  0.00  0.00  0.00  0.00  0.00  0.20  0.00  0.00
  SP5637                  1.00   0.00  0.00  0.00  0.38  0.62  0.00  0.00  0.46  0.00
  SP5638                  1.00   0.00  0.00  0.00  0.82  0.18  0.00  0.00  0.87  0.00
  SP5639                  1.00   1.00  0.00  0.00  0.00  0.00  0.00  0.00  0.00  0.00
  SP5641                  1.74   0.00  0.00  0.00  0.00  1.00  0.00  0.00  1.00  0.00
  SP5642                  1.18   0.00  0.00  0.00  0.00  0.00  0.00  1.00  0.00  0.00
  SP5704                  1.00   0.00  0.00  0.00  0.02  0.98  0.00  0.00  0.97  0.00
  SP5705                  1.00   0.00  0.00  0.00  0.63  0.37  0.00  0.00  0.99  0.00
  SP5706                  1.00   0.00  0.00  0.00  1.00  0.00  0.00  0.00  0.63  0.00
  SP5716                  1.00   1.00  0.00  0.00  0.00  0.00  0.00  0.00  0.00  0.00
  SP5717                  1.00   0.03  0.00  0.00  0.97  0.00  0.00  0.00  0.88  0.00
  SP5728                  1.00   0.00  0.00  0.00  1.00  0.00  0.00  0.00  0.96  0.00
  SP5729                  3.79   0.00  0.00  0.00  1.00  0.00  0.00  0.00  0.01  0.00
  SP5730                  1.00   0.00  0.00  0.00  1.00  0.00  0.00  0.00  1.00  0.00
  SP5817                  1.95   0.00  0.00  0.00  1.00  0.00  0.00  0.00  0.06  0.00
  SP5818                  1.83   1.00  0.00  0.00  0.00  0.00  0.00  0.00  0.00  0.00
  SP5819                  2.44   0.00  1.00  0.00  0.00  0.00  0.00  0.00  0.00  0.00
  SP5833                  1.00   0.00  0.00  0.00  0.24  0.76  0.00  0.00  0.00  0.00
  SP5836                  1.27   0.00  0.00  0.00  0.39  0.61  0.00  0.00  0.66  0.00
  SP5873                  5.91   0.03  0.00  0.00  0.96  0.01  0.00  0.00  0.54  0.00
  SP5891                  2.30   0.00  0.00  0.00  0.00  1.00  0.00  0.00  0.07  0.00
  SP5892                  3.60   0.00  0.00  0.00  0.00  1.00  0.00  0.00  0.09  0.00
  SP5893                  1.97   0.00  0.00  0.00  0.00  1.00  0.00  0.00  0.06  0.00
  SP6427                  1.00   0.00  0.00  0.00  1.00  0.00  0.00  0.00  0.00  0.00
  SP6428                  1.00   0.00  0.00  0.00  1.00  0.00  0.00  0.00  1.00  0.00
  SP6429                  1.00   0.00  0.00  0.00  0.00  1.00  0.00  0.00  0.00  0.00
  SP6432                  1.00   0.00  0.00  0.00  0.00  1.00  0.00  0.00  0.94  0.00
  SP6433                  1.00   0.00  0.00  0.00  0.00  1.00  0.00  0.00  0.02  0.00
  SP6434                  1.00   0.01  0.00  0.00  0.99  0.00  0.00  0.00  0.35  0.00
  SP6435                  1.00   0.01  0.00  0.00  0.99  0.00  0.00  0.00  0.00  0.00
  SP6436                  1.00   0.00  0.00  0.00  1.00  0.00  0.00  0.00  0.18  0.00
  SP6437                  1.00   0.00  0.00  0.00  1.00  0.00  0.00  0.00  0.68  0.00
  SP6438                  2.69   0.00  0.00  0.00  1.00  0.00  0.00  0.00  0.00  0.00
  SP6538                  1.00   0.02  0.00  0.00  0.98  0.00  0.00  0.00  0.00  0.00
  SP6539                  1.00   0.02  0.00  0.00  0.98  0.00  0.00  0.00  0.14  0.00
  WWTPFM2                 1.00   0.00  0.00  0.00  0.53  0.47  0.00  0.00  0.07  0.00
  2                       1.81   0.00  0.01  0.00  0.99  0.00  0.00  0.00  0.00  0.00
  3                       3.79   0.08  0.00  0.00  0.26  0.00  0.00  0.66  0.00  0.00
  LowSiphDS_C             2.91   0.03  0.00  0.00  0.97  0.00  0.00  0.00  0.00  0.00
  4                       1.10   0.11  0.00  0.00  0.40  0.00  0.00  0.48  0.00  0.00
  
  
  *************************
  Conduit Surcharge Summary
  *************************
  
  ----------------------------------------------------------------------------
                                                           Hours        Hours 
                         --------- Hours Full --------   Above Full   Capacity
  Conduit                Both Ends  Upstream  Dnstream   Normal Flow   Limited
  ----------------------------------------------------------------------------
  505                        16.17     16.17     16.18      0.01         0.01
  72                         18.81     18.81     18.81      8.26         9.17
  73                          4.23      4.23     18.59      0.01         0.01
  76                         18.84     18.84     19.13      0.01         0.01
  77                         17.82     17.82     17.94      0.01         0.01
  78                          2.30      2.30     17.82      0.01         0.01
  79                          4.07      4.07     18.83      0.01         0.01
  87                         13.19     13.19     19.41      0.01         0.01
  88                         19.41     19.41     19.41     11.46        12.32
  89                          7.70      7.70     19.03      0.01         0.01
  90                          0.01      0.01     15.06      0.01         0.01
  91                          0.01      0.01     15.06      0.01         0.01
  CDM25                      17.61     17.61     19.87      0.01         0.01
  CDM26                      17.86     17.86     18.33      0.01         0.01
  CDM36                       0.01      4.76      0.01      0.01         0.01
  CDM40                       0.01      2.51      0.01      0.01         0.01
  CDM47                       0.01      0.01      8.38      0.01         0.01
  CDM53                       0.01      0.01     21.00      0.01         0.01
  CDM55                       0.01      0.01      0.14      0.01         0.01
  CDM63                       0.01      0.01      0.01      6.94         0.01
  CP13365                    16.76     16.76     21.00      0.01         0.01
  CP26514                     8.78      8.78      9.79      7.53         7.54
  CP26517                     6.12      9.79      6.12     10.49         6.12
  CP27064                     0.01      0.01      9.38      0.01         0.01
  CP27418                     0.01      0.01     17.30      0.01         0.01
  CP27447                     4.95      4.95      5.02      0.01         0.01
  CP27450                     5.02      5.02      6.49      0.01         0.01
  CP27473                     0.01      0.01     21.00      0.01         0.01
  CP27502                     0.01      0.01     21.00      0.01         0.01
  CP27507                     0.01      0.01     21.00      0.01         0.01
  CP27509                     0.01      7.70      0.01     10.51         0.01
  CP3440                      0.01      0.01     19.24      0.01         0.01
  CP3889                     10.04     10.04     13.19      5.93         5.93
  CP4147                      0.01      0.01      3.77      0.01         0.01
  CP4157                      0.01      0.01      0.01     11.14         0.01
  CP4881                      5.29      5.35      5.52      5.53         5.28
  CP4882                      3.41      3.41     16.25      0.01         0.01
  CP4890                      0.01      0.01     21.00      0.01         0.01
  CP4905                     16.27     16.27     17.35      0.01         0.01
  CP4907                      3.25      3.25      3.37      3.05         3.05
  CP4908                      3.37      3.37      3.78      2.21         2.23
  CP4909                      3.78      3.78      5.21      0.01         0.01
  CP5012                      6.22      6.22      8.20      3.32         3.29
  CP5013                      8.21      8.21     16.28      3.84         3.84
  CP5109                      0.01      0.01     16.20      0.01         0.01
  CP5484                      0.01      0.01      0.01     12.38         0.01
  CP5489                      0.01      0.01      8.00      0.01         0.01
  CP5499                      0.01      0.01      7.03      0.01         0.01
  FM74                        1.52      1.61     15.65      5.17         0.04
  NMWS01                      1.60      1.60      5.77      0.01         0.01
  SP13364                     0.01      0.01     21.00      0.01         0.01
  SP13433                     0.01      0.01      0.01      6.99         0.01
  SP27398                     0.01      0.01     17.60      0.01         0.01
  SP27410                     8.39      8.39     16.17      0.01         0.01
  SP27412                    16.18     16.18     16.21      0.01         0.01
  SP27414                    16.34     16.34     16.41      0.01         0.01
  SP27415                    16.56     16.56     16.70      0.01         0.01
  SP27415-1                  16.56     16.56     16.70      0.01         0.01
  SP27416                    17.59     17.59     17.75      0.01         0.01
  SP27425                    17.05     17.05     17.19      0.01         0.01
  SP27426                    17.01     17.01     17.05      0.01         0.01
  SP27430                    16.91     16.91     17.01      0.01         0.01
  SP27435                     2.37      2.37      2.64      0.01         0.01
  SP27468                     1.08      1.08      1.36      0.01         0.01
  SP27475                    18.65     18.65     18.81      0.01         0.01
  SP27480                     0.01      0.01     17.81      0.01         0.01
  SP27481                     0.01      0.01     21.00      0.01         0.01
  SP27496                     0.01      0.01     21.00      0.01         0.01
  SP27497                     2.91      2.91     10.18      0.01         0.01
  SP3442                     19.24     19.24     20.43      0.01         0.01
  SP4030                      0.01      0.01     18.00      0.01         0.01
  SP4075                      0.01      0.01      6.77      0.01         0.01
  SP4082                      0.01      0.01      2.91      0.01         0.01
  SP4083                      2.91      2.91      9.11      0.01         0.01
  SP4084                      9.11      9.11     17.66      0.01         0.01
  SP4085                     17.66     17.66     17.70      0.01         0.01
  SP4086                     10.18     10.18     17.70      0.01         0.01
  SP4089                      0.01      0.01     11.54      0.01         0.01
  SP4148                      0.01      0.01     21.00      0.01         0.01
  SP4160                      0.01      0.01     21.00      0.01         0.01
  SP4590                      0.01      0.01      4.87      0.01         0.01
  SP4615                      0.01      0.01     20.69      0.01         0.01
  SP4885                     16.25     16.25     16.27      0.01         0.01
  SP4886                     16.27     16.27     16.31      0.01         0.01
  SP4895                     16.26     16.26     16.27      0.01         0.01
  SP4896                     16.27     16.27     16.27      0.01         0.01
  SP4897                     16.27     16.27     16.28      0.01         0.01
  SP4898                     16.28     16.28     16.30      0.01         0.01
  SP4899                     16.30     16.30     16.31      0.01         0.01
  SP4900                     16.31     16.31     16.34      0.01         0.01
  SP4901                     16.34     16.34     16.38      0.01         0.01
  SP4902                     16.38     16.38     16.43      0.01         0.01
  SP4993                     16.79     16.79     16.85      0.01         0.01
  SP5002                     16.74     16.74     16.79      0.01         0.01
  SP5024                     16.66     16.66     16.69      0.01         0.01
  SP5025                     16.69     16.69     16.74      0.01         0.01
  SP5026                     16.62     16.62     16.77      0.01         0.01
  SP5030                     16.58     16.58     16.62      0.01         0.01
  SP5033                     16.55     16.55     16.58      0.01         0.01
  SP5034                     16.52     16.52     16.55      0.01         0.01
  SP5098                     17.08     17.08     17.13      0.01         0.01
  SP5102                     16.20     16.20     17.62      0.01         0.01
  SP5106                      0.01      0.01     21.00      0.01         0.01
  SP5107                     17.13     17.13     17.20      0.01         0.01
  SP5108                     17.20     17.20     17.35      0.01         0.01
  SP5110                     16.85     16.85     16.91      0.01         0.01
  SP5126                     17.25     17.25     17.35      0.01         0.01
  SP5127                     17.35     17.35     17.46      0.01         0.01
  SP5128                     17.46     17.46     17.59      0.01         0.01
  SP5156                     16.26     16.26     16.34      0.01         0.01
  SP5158                     16.41     16.41     16.46      0.01         0.01
  SP5159                     16.46     16.46     16.56      0.01         0.01
  SP5504                      0.01      0.01      0.01      3.64         0.01
  SP5505                      0.01      0.01      0.01      3.06         0.01
  SP5506                      0.01      0.01      0.01      4.11         0.01
  SP5507                      0.01      0.01      0.01      3.43         0.01
  SP5508                      0.01      0.01      0.01      4.26         0.01
  SP5509                      0.01      0.01      0.01      4.48         0.01
  SP5510                      0.01      0.01      0.01      4.37         0.01
  SP5511                      0.01      0.01      0.01      8.46         0.01
  SP5513                      0.01      0.01      0.01      2.09         0.01
  SP5516                      0.01      0.01      0.01      1.56         0.01
  SP5517                      0.01      0.01      0.01      2.52         0.01
  SP5520                      0.01      0.01      0.01      1.49         0.01
  SP5610                      0.01      0.01     16.87      0.01         0.01
  SP5634                      0.01      0.01     16.19      0.01         0.01
  SP5635                     16.21     16.21     16.26      0.01         0.01
  SP5636                      0.01      6.48      0.01      7.48         0.01
  SP5817                      0.01      0.01     20.56      0.01         0.01
  SP5873                      5.39      5.39     19.14      0.01         0.01
  SP6538                     16.43     16.43     16.49      0.01         0.01
  SP6539                     16.49     16.49     16.60      0.01         0.01
  WWTPFM2                     0.01      1.61      0.01      4.46         0.01
  2                           2.64      2.64      2.85      0.01         0.09
  LowSiphDS_C                 0.01      0.01      2.37      0.01         0.01
  4                           4.23      4.23      4.88      0.01         0.01
  
  
  ***************
  Pumping Summary
  ***************
  
  ---------------------------------------------------------------------------------------------------------
                                                  Min       Avg       Max     Total     Power    % Time Off
                        Percent   Number of      Flow      Flow      Flow    Volume     Usage    Pump Curve
  Pump                 Utilized   Start-Ups       CFS       CFS       CFS  10^6 gal     Kw-hr    Low   High
  ---------------------------------------------------------------------------------------------------------
  FM48pump                99.78           1      0.00      0.15      0.25     0.066      2.26    0.0    0.0
  FM64                   100.00           1      0.00      0.17      0.25     0.087      1.87    0.0    0.0
  SP27493                 94.99           4      0.00     48.43     93.00    18.238  10402.18    0.0   39.2
  MarginalPump             0.00           0      0.00      0.00      0.00     0.000      0.00    0.0    0.0
  

  Analysis begun on:  Tue Jun 23 21:17:17 2026
  Analysis ended on:  Tue Jun 23 21:17:24 2026
  Total elapsed time: 00:00:07