
  EPA STORM WATER MANAGEMENT MODEL - VERSION 5.2 (Build 5.2.4)
  ------------------------------------------------------------

  
  ERROR 209: undefined object 13.222545 at line 68 of [SUBCATCHMENT] section:
  ALLS_1005        2015_Longwood         13.222545 96       10386.332 0.035    6879.194 TypicalSnowPack 

  
  ERROR 209: undefined object 2.019665 at line 70 of [SUBCATCHMENT] section:
  ALLS_1006        2015_Allston          2.019665 67       1828.845 3.493    354.273  TypicalSnowPack 

  
  ERROR 209: undefined object 2.794026 at line 72 of [SUBCATCHMENT] section:
  ALLS_1007        2015_Allston          2.794026 92       4720.832 2.163    1739.044 TypicalSnowPack 

  
  ERROR 209: undefined object 1.868864 at line 74 of [SUBCATCHMENT] section:
  ALLS_1008        2015_Allston          1.868864 68       1478.339 2.804    722.223  TypicalSnowPack 

  
  ERROR 209: undefined object 11.198513 at line 75 of [SUBCATCHMENT] section:
  ALLS_1027        2015_Longwood         11.198513 96       733.57   0.266    4409.573 TypicalSnowPack 

  
  ERROR 209: undefined object 11.996286 at line 77 of [SUBCATCHMENT] section:
  ALLS_1033        2015_Allston          11.996286 80       20736.437 1.589    3584.499 TypicalSnowPack 

  
  ERROR 209: undefined object 40.313658 at line 79 of [SUBCATCHMENT] section:
  ALLS_1034        2015_Allston          40.313658 83       11182.052 1.589    15015.072 TypicalSnowPack 

  
  ERROR 209: undefined object 8.940929 at line 81 of [SUBCATCHMENT] section:
  ALLS_1035        2015_Allston          8.940929 71       15620.538 0.5      4526.927 TypicalSnowPack 

  
  ERROR 209: undefined object 9.799839 at line 83 of [SUBCATCHMENT] section:
  ALLS_1036        2015_Allston          9.799839 67       8498.357 1.352    3232.832 TypicalSnowPack 

  
  ERROR 209: undefined object 15.934788 at line 85 of [SUBCATCHMENT] section:
  ALLS_1037        2015_Allston          15.934788 65       27773.662 0.5      5937.643 TypicalSnowPack 

  
  ERROR 209: undefined object 13.987838 at line 87 of [SUBCATCHMENT] section:
  ALLS_1038        2015_Allston          13.987838 81       24729.503 0.5      7247.534 TypicalSnowPack 

  
  ERROR 209: undefined object 42.694348 at line 89 of [SUBCATCHMENT] section:
  ALLS_1039        2015_Allston          42.694348 75       6083.75  2.835    15476.485 TypicalSnowPack 

  
  ERROR 209: undefined object 35.306128 at line 91 of [SUBCATCHMENT] section:
  ALLS_1040        2015_Allston          35.306128 74       61289.401 1.198    12667.512 TypicalSnowPack 

  
  ERROR 209: undefined object 0.635307 at line 92 of [SUBCATCHMENT] section:
  ALLS_1063        2015_Allston          0.635307 99       542.223  0.553    675.359  TypicalSnowPack 

  
  ERROR 209: undefined object 1.041511 at line 94 of [SUBCATCHMENT] section:
  ALLS_1070        2015_Allston          1.041511 99       1792.573 0.457    635.913  TypicalSnowPack 

  
  ERROR 209: undefined object 1.220644 at line 96 of [SUBCATCHMENT] section:
  ALLS_1071        2015_Allston          1.220644 99       3075.972 0.553    665.136  TypicalSnowPack 

  
  ERROR 209: undefined object 3.243084 at line 98 of [SUBCATCHMENT] section:
  ALLS_1072        2015_Allston          3.243084 71       3568.474 2.317    842.55   TypicalSnowPack 

  
  ERROR 209: undefined object 7.62471 at line 100 of [SUBCATCHMENT] section:
  ALLS_1073        2015_Allston          7.62471  98       13381.103 0.537    5581.626 TypicalSnowPack 

  
  ERROR 209: undefined object 1.236752 at line 101 of [SUBCATCHMENT] section:
  ALLS_1074        2015_Allston          1.236752 59       966.001  0.671    334.901  TypicalSnowPack 

  
  ERROR 209: undefined object 2.527728 at line 102 of [SUBCATCHMENT] section:
  ALLS_1075        2015_Allston          2.527728 67       1996.733 0.671    1058.359 TypicalSnowPack 

  
  ERROR 209: undefined object 2.413154 at line 104 of [SUBCATCHMENT] section:
  ALLS_1076        2015_Allston          2.413154 99       2657.892 0.553    1600.585 TypicalSnowPack 

  
  ERROR 209: undefined object 21.820525 at line 106 of [SUBCATCHMENT] section:
  ALLS_1077        2015_Allston          21.820525 79       38277.306 0.537    6731.83  TypicalSnowPack 

  
  ERROR 209: undefined object 11.187497 at line 107 of [SUBCATCHMENT] section:
  ALLS_1078        2015_Longwood         11.187497 97       667.026  1.195    2578.385 TypicalSnowPack 

  
  ERROR 209: undefined object 1.72319 at line 108 of [SUBCATCHMENT] section:
  ALLS_1079        2015_Longwood         1.72319  99       211.764  1.888    230.412  TypicalSnowPack 

  
  ERROR 209: undefined object 225.163083 at line 109 of [SUBCATCHMENT] section:
  ALLS_1080        2015_Longwood         225.163083 61       1490     0.5      49455    TypicalSnowPack 

  
  ERROR 209: undefined object 0.630169 at line 111 of [SUBCATCHMENT] section:
  ALLS_1083        2015_Allston          0.630169 99       1026.865 0.553    291.556  TypicalSnowPack 

  
  ERROR 209: undefined object 11.646222 at line 112 of [SUBCATCHMENT] section:
  ALLS_1084        2015_Longwood         11.646222 94       1133.255 1.063    3582.292 TypicalSnowPack 

  
  ERROR 209: undefined object 21.211558 at line 113 of [SUBCATCHMENT] section:
  ALLS_1085        2015_Longwood         21.211558 92       956.634  1.063    7012.714 TypicalSnowPack 

  
  ERROR 209: undefined object 35.419918 at line 114 of [SUBCATCHMENT] section:
  ALLS_1086        2015_Longwood         35.419918 69       1756.202 0.089    13648.487 TypicalSnowPack 

  
  ERROR 209: undefined object 7.790776 at line 115 of [SUBCATCHMENT] section:
  ALLS_1562        2015_Allston          7.790776 76       6079.979 0.671    2844.782 TypicalSnowPack 

  
  ERROR 209: undefined object 48.540865 at line 116 of [SUBCATCHMENT] section:
  ALLS_1563        2015_Allston          48.540865 83       38025.394 0.671    21671.61 TypicalSnowPack 

  
  ERROR 209: undefined object 3.533234 at line 117 of [SUBCATCHMENT] section:
  ALLS_1564        2015_Allston          3.533234 67       2629.327 0.671    1596.26  TypicalSnowPack 

  
  ERROR 209: undefined object 16.107394 at line 119 of [SUBCATCHMENT] section:
  ALLS_1565        2015_Allston          16.107394 85       27948.141 0.553    8727.104 TypicalSnowPack 

  
  ERROR 209: undefined object 6.417538 at line 121 of [SUBCATCHMENT] section:
  ALLS_1566        2015_Allston          6.417538 80       3739.022 0.553    3071.859 TypicalSnowPack 

  
  ERROR 209: undefined object 3.769024 at line 123 of [SUBCATCHMENT] section:
  ALLS_1567        2015_Allston          3.769024 70       6562.422 1.078    993.934  TypicalSnowPack 

  
  ERROR 209: undefined object 3.653142 at line 125 of [SUBCATCHMENT] section:
  ALLS_1568        2015_Allston          3.653142 71       5938.605 1.579    1161.062 TypicalSnowPack 

  
  ERROR 209: undefined object 0.877862 at line 126 of [SUBCATCHMENT] section:
  ALLS_1863        2015_Allston          0.877862 76       166.33   0.166    1023.593 TypicalSnowPack 

  
  ERROR 209: undefined object 1.904773 at line 127 of [SUBCATCHMENT] section:
  ALLS_1865        2015_Allston          1.904773 65       190.118  1.089    532.034  TypicalSnowPack 

  
  ERROR 209: undefined object 1.208687 at line 128 of [SUBCATCHMENT] section:
  ALLS_187         2015_Allston          1.208687 99       950.849  0.136    1157.332 TypicalSnowPack 

  
  ERROR 209: undefined object 1.430834 at line 129 of [SUBCATCHMENT] section:
  ALLS_188         2015_Allston          1.430834 74       1143.974 0.136    870.236  TypicalSnowPack 

  
  ERROR 209: undefined object 0 at line 130 of [SUBCATCHMENT] section:
  ALLS_1889        2015_Longwood    0    0.352316 12       163.529  0.089    0        TypicalSnowPack 

  
  ERROR 209: undefined object 1.423001 at line 131 of [SUBCATCHMENT] section:
  ALLS_189         2015_Allston          1.423001 65       1103.679 0.136    668.817  TypicalSnowPack 

  
  ERROR 209: undefined object 1.182369 at line 132 of [SUBCATCHMENT] section:
  ALLS_190         2015_Allston          1.182369 99       971.444  0.136    1099.34  TypicalSnowPack 

  
  ERROR 209: undefined object 1.759213 at line 133 of [SUBCATCHMENT] section:
  ALLS_1901        2015_Allston          1.759213 41       316.705  0.105    625.901  TypicalSnowPack 

  
  ERROR 209: undefined object 25.064057 at line 134 of [SUBCATCHMENT] section:
  ALLS_1902        2015_Allston          25.064057 38       19514.725 0.105    5467.84  TypicalSnowPack 

  
  ERROR 209: undefined object 33.861972 at line 135 of [SUBCATCHMENT] section:
  ALLS_1903        2015_Allston          33.861972 36       26594.802 0.034    4538.373 TypicalSnowPack 

  
  ERROR 209: undefined object 4.378164 at line 136 of [SUBCATCHMENT] section:
  ALLS_1904        2015_Allston          4.378164 16       366.588  0.213    534.674  TypicalSnowPack 

  
  ERROR 209: undefined object 3.544589 at line 137 of [SUBCATCHMENT] section:
  ALLS_191         2015_Allston          3.544589 99       2754.97  0.145    419.298  TypicalSnowPack 

  
  ERROR 209: undefined object 9.519783 at line 138 of [SUBCATCHMENT] section:
  ALLS_192         2015_Allston          9.519783 64       7369.107 0.232    3311.201 TypicalSnowPack 

  
  ERROR 209: undefined object 4.513566 at line 139 of [SUBCATCHMENT] section:
  ALLS_1929        2015_Allston          4.513566 92       3364.724 0.782    2617.177 TypicalSnowPack 

  
  ERROR 209: undefined object 9.655689 at line 140 of [SUBCATCHMENT] section:
  ALLS_193         2015_Allston          9.655689 67       7743.608 0.232    2984.651 TypicalSnowPack 

  
  ERROR 209: undefined object 1.637031 at line 141 of [SUBCATCHMENT] section:
  ALLS_1930        2015_Allston          1.637031 67       284.236  0.782    1166.229 TypicalSnowPack 

  
  ERROR 209: undefined object 1.119562 at line 142 of [SUBCATCHMENT] section:
  ALLS_194         2015_Allston          1.119562 99       965.17   0.136    987.312  TypicalSnowPack 

  
  ERROR 209: undefined object 181.164714 at line 144 of [SUBCATCHMENT] section:
  ALLS_1942        2015_Longwood         181.164714 61       1201     0.5      39961    TypicalSnowPack 

  
  ERROR 209: undefined object 0 at line 145 of [SUBCATCHMENT] section:
  ALLS_1943        2015_Longwood    0    1.081041 89       820.271  0.767    821.6    TypicalSnowPack 

  
  ERROR 209: undefined object 1.124157 at line 146 of [SUBCATCHMENT] section:
  ALLS_195         2015_Allston          1.124157 88       912.209  0.136    879.238  TypicalSnowPack 

  
  ERROR 209: undefined object 6.273344 at line 147 of [SUBCATCHMENT] section:
  ALLS_196         2015_Allston          6.273344 99       4921.067 0.15     1037.071 TypicalSnowPack 

  
  ERROR 209: undefined object 33.425957 at line 148 of [SUBCATCHMENT] section:
  ALLS_197         2015_Allston          33.425957 94       25974.645 0.249    16891.888 TypicalSnowPack 

  
  ERROR 209: undefined object 10.746513 at line 149 of [SUBCATCHMENT] section:
  ALLS_199         2015_Allston          10.746513 69       8432.889 0.145    4689.679 TypicalSnowPack 

  
  ERROR 209: undefined object 2.155031 at line 150 of [SUBCATCHMENT] section:
  ALLS_200         2015_Allston          2.155031 99       1605.767 0.145    184.733  TypicalSnowPack 

  
  ERROR 209: undefined object 0.624485 at line 151 of [SUBCATCHMENT] section:
  ALLS_201         2015_Allston          0.624485 99       521.332  0.145    0        TypicalSnowPack 

  
  ERROR 209: undefined object 1.082334 at line 152 of [SUBCATCHMENT] section:
  ALLS_202         2015_Allston          1.082334 41       139.764  0.476    507.943  TypicalSnowPack 

  
  ERROR 209: undefined object 0.784909 at line 153 of [SUBCATCHMENT] section:
  ALLS_205         2015_Allston          0.784909 49       617.784  0.232    185.194  TypicalSnowPack 

  
  ERROR 209: undefined object 3.669681 at line 154 of [SUBCATCHMENT] section:
  ALLS_206         2015_Allston          3.669681 98       2936.77  0.126    690.325  TypicalSnowPack 

  
  ERROR 209: undefined object 1.57912 at line 155 of [SUBCATCHMENT] section:
  ALLS_207         2015_Allston          1.57912  97       1209.858 0.17     529.171  TypicalSnowPack 

  
  ERROR 209: undefined object 2.048839 at line 156 of [SUBCATCHMENT] section:
  ALLS_208         2015_Allston          2.048839 97       1604.304 0.347    1226.638 TypicalSnowPack 

  
  ERROR 209: undefined object 0.82799 at line 157 of [SUBCATCHMENT] section:
  ALLS_209         2015_Allston          0.82799  99       665.19   0.145    319.119  TypicalSnowPack 

  
  ERROR 209: undefined object 0.409155 at line 158 of [SUBCATCHMENT] section:
  ALLS_210         2015_Allston          0.409155 100      320.369  0.954    342.75   TypicalSnowPack 

  
  ERROR 209: undefined object 0.800589 at line 159 of [SUBCATCHMENT] section:
  ALLS_211         2015_Allston          0.800589 74.876   626.863  1.128    253.931  TypicalSnowPack 

  
  ERROR 209: undefined object 1.39957 at line 160 of [SUBCATCHMENT] section:
  ALLS_212         2015_Allston          1.39957  62.842   1095.867 2.137    232.512  TypicalSnowPack 

  
  ERROR 209: undefined object 0.880105 at line 161 of [SUBCATCHMENT] section:
  ALLS_213         2015_Allston          0.880105 69.393   689.124  0.875    197.217  TypicalSnowPack 

  
  ERROR 209: undefined object 2.14014 at line 162 of [SUBCATCHMENT] section:
  ALLS_215         2015_Allston          2.14014  68.783   1681.66  2.911    244.855  TypicalSnowPack 

  
  ERROR 209: undefined object 0.972088 at line 163 of [SUBCATCHMENT] section:
  ALLS_216         2015_Allston          0.972088 57.372   761.147  1.107    233.63   TypicalSnowPack 

  
  ERROR 209: undefined object 0.887086 at line 164 of [SUBCATCHMENT] section:
  ALLS_217         2015_Allston          0.887086 88.805   694.591  2.131    158.031  TypicalSnowPack 

  
  ERROR 209: undefined object 4.961525 at line 165 of [SUBCATCHMENT] section:
  ALLS_218         2015_Allston          4.961525 70       274.352  1.089    2641.374 TypicalSnowPack 

  
  ERROR 209: undefined object 0.405095 at line 166 of [SUBCATCHMENT] section:
  ALLS_219         2015_Allston          0.405095 100      317.19   0.851    62.408   TypicalSnowPack 

  
  ERROR 209: undefined object 1.454234 at line 167 of [SUBCATCHMENT] section:
  ALLS_220         2015_Allston          1.454234 86.093   1138.669 1.131    224.815  TypicalSnowPack 

  
  ERROR 209: undefined object 1.224031 at line 168 of [SUBCATCHMENT] section:
  ALLS_222         2015_Allston          1.224031 33       1009.921 0.145    97.668   TypicalSnowPack 

  
  ERROR 209: undefined object 0.345997 at line 169 of [SUBCATCHMENT] section:
  ALLS_223         2015_Allston          0.345997 81.844   270.917  0.834    149.73   TypicalSnowPack 

  
  ERROR 209: undefined object 11.172551 at line 170 of [SUBCATCHMENT] section:
  ALLS_2235        2015_Longwood         11.172551 73       408      1.063    5963.634 TypicalSnowPack 

  
  ERROR 209: undefined object 0.671901 at line 171 of [SUBCATCHMENT] section:
  ALLS_224         2015_Allston          0.671901 78.068   526.1    0.654    385.22   TypicalSnowPack 

  
  ERROR 209: undefined object 0.100058 at line 172 of [SUBCATCHMENT] section:
  ALLS_225         2015_Allston          0.100058 90.64    78.346   0.33     112.567  TypicalSnowPack 

  
  ERROR 209: undefined object 5.483964 at line 173 of [SUBCATCHMENT] section:
  ALLS_226         2015_Allston          5.483964 67       4369.836 0.249    3498.425 TypicalSnowPack 

  
  ERROR 209: undefined object 2.053164 at line 174 of [SUBCATCHMENT] section:
  ALLS_227         2015_Allston          2.053164 67.157   1607.633 1.065    696.153  TypicalSnowPack 

  
  ERROR 209: undefined object 1.372356 at line 175 of [SUBCATCHMENT] section:
  ALLS_228         2015_Allston          1.372356 58.159   1074.558 1.064    228.201  TypicalSnowPack 

  
  ERROR 209: undefined object 1.659395 at line 176 of [SUBCATCHMENT] section:
  ALLS_229         2015_Allston          1.659395 70.183   1299.311 1.191    668.618  TypicalSnowPack 

  
  ERROR 209: undefined object 1.186119 at line 177 of [SUBCATCHMENT] section:
  ALLS_230         2015_Allston          1.186119 71.065   928.734  1.171    420.024  TypicalSnowPack 

  
  ERROR 209: undefined object 1.424416 at line 178 of [SUBCATCHMENT] section:
  ALLS_231         2015_Allston          1.424416 71.28    1115.321 1.218    396.558  TypicalSnowPack 

  
  ERROR 209: undefined object 1.174149 at line 179 of [SUBCATCHMENT] section:
  ALLS_232         2015_Allston          1.174149 67.607   919.362  1.624    288.106  TypicalSnowPack 

  
  ERROR 209: undefined object 0.588994 at line 180 of [SUBCATCHMENT] section:
  ALLS_233         2015_Allston          0.588994 49.937   461.184  1.172    100.104  TypicalSnowPack 

  
  ERROR 209: undefined object 1.692607 at line 181 of [SUBCATCHMENT] section:
  ALLS_234         2015_Allston          1.692607 59.112   1325.316 1.465    331.242  TypicalSnowPack 

  
  ERROR 209: undefined object 1.450996 at line 182 of [SUBCATCHMENT] section:
  ALLS_235         2015_Allston          1.450996 78.75    1136.134 1.324    442.106  TypicalSnowPack 

  
  ERROR 209: undefined object 0.66207 at line 183 of [SUBCATCHMENT] section:
  ALLS_236         2015_Allston          0.66207  49.777   518.403  0.867    86.848   TypicalSnowPack 

  
  ERROR 209: undefined object 1.027788 at line 184 of [SUBCATCHMENT] section:
  ALLS_237         2015_Allston          1.027788 69.48    804.761  0.856    680.655  TypicalSnowPack 

  
  ERROR 209: undefined object 1.27416 at line 185 of [SUBCATCHMENT] section:
  ALLS_238         2015_Allston          1.27416  25.126   997.671  1.481    131.579  TypicalSnowPack 

  
  ERROR 209: undefined object 0.876316 at line 186 of [SUBCATCHMENT] section:
  ALLS_239         2015_Allston          0.876316 59.081   686.158  1.107    284.228  TypicalSnowPack 

  
  ERROR 209: undefined object 1.024982 at line 187 of [SUBCATCHMENT] section:
  ALLS_240         2015_Allston          1.024982 40.098   802.997  1.37     195.151  TypicalSnowPack 

  
  ERROR 209: undefined object 1.096689 at line 188 of [SUBCATCHMENT] section:
  ALLS_241         2015_Allston          1.096689 61.36    858.71   1.32     490.065  TypicalSnowPack 

  
  ERROR 209: undefined object 0.455007 at line 189 of [SUBCATCHMENT] section:
  ALLS_242         2015_Allston          0.455007 78.459   356.272  1.149    109.621  TypicalSnowPack 

  
  ERROR 209: undefined object 0.239399 at line 190 of [SUBCATCHMENT] section:
  ALLS_243         2015_Allston          0.239399 50.155   187.45   0.846    99.358   TypicalSnowPack 

  
  Maximum error count exceeded.

  Analysis begun on:  Tue Jun 23 21:17:44 2026
  Analysis ended on:  Tue Jun 23 21:17:44 2026
  Total elapsed time: < 1 sec