
  EPA STORM WATER MANAGEMENT MODEL - VERSION 5.2 (Build 5.2.4)
  ------------------------------------------------------------

  
  ERROR 235: invalid infiltration parameters at line 155 of [INFIL] section:
  S1               3          0.5        4         

  
  ERROR 235: invalid infiltration parameters at line 156 of [INFIL] section:
  S2               3          0.5        4         

  
  ERROR 235: invalid infiltration parameters at line 157 of [INFIL] section:
  S3               3          0.5        4         

  
  ERROR 235: invalid infiltration parameters at line 158 of [INFIL] section:
  S4               3          0.5        4         

  
  ERROR 235: invalid infiltration parameters at line 159 of [INFIL] section:
  S5               3          0.5        4         

  
  ERROR 235: invalid infiltration parameters at line 160 of [INFIL] section:
  S6               3          0.5        4         

  
  ERROR 235: invalid infiltration parameters at line 161 of [INFIL] section:
  S7               3          0.5        4         

  
  ERROR 235: invalid infiltration parameters at line 162 of [INFIL] section:
  S8               3          0.5        4         

  
  ERROR 235: invalid infiltration parameters at line 163 of [INFIL] section:
  S9               3          0.5        4         

  
  ERROR 235: invalid infiltration parameters at line 164 of [INFIL] section:
  S10              3          0.5        4         

  
  ERROR 235: invalid infiltration parameters at line 165 of [INFIL] section:
  S11              3          0.5        4         

  
  ERROR 235: invalid infiltration parameters at line 166 of [INFIL] section:
  S12              3          0.5        4         

  
  ERROR 235: invalid infiltration parameters at line 167 of [INFIL] section:
  S13              3          0.5        4         

  
  ERROR 235: invalid infiltration parameters at line 168 of [INFIL] section:
  S14              3          0.5        4         

  
  ERROR 235: invalid infiltration parameters at line 169 of [INFIL] section:
  S15              3          0.5        4         

  
  ERROR 235: invalid infiltration parameters at line 170 of [INFIL] section:
  S16              3          0.5        4         

  
  ERROR 235: invalid infiltration parameters at line 171 of [INFIL] section:
  S17              3          0.5        4         

  
  ERROR 235: invalid infiltration parameters at line 172 of [INFIL] section:
  S18              3          0.5        4         

  
  ERROR 235: invalid infiltration parameters at line 173 of [INFIL] section:
  S19              3          0.5        4         

  
  ERROR 235: invalid infiltration parameters at line 174 of [INFIL] section:
  S20              3          0.5        4         

  
  ERROR 235: invalid infiltration parameters at line 175 of [INFIL] section:
  S21              3          0.5        4         

  
  ERROR 235: invalid infiltration parameters at line 176 of [INFIL] section:
  S22              3          0.5        4         

  
  ERROR 235: invalid infiltration parameters at line 177 of [INFIL] section:
  S23              3          0.5        4         

  
  ERROR 235: invalid infiltration parameters at line 178 of [INFIL] section:
  S24              3          0.5        4         

  
  ERROR 235: invalid infiltration parameters at line 179 of [INFIL] section:
  S25              3          0.5        4         

  
  ERROR 235: invalid infiltration parameters at line 180 of [INFIL] section:
  S26              3          0.5        4         

  
  ERROR 235: invalid infiltration parameters at line 181 of [INFIL] section:
  S27              3          0.5        4         

  
  ERROR 235: invalid infiltration parameters at line 182 of [INFIL] section:
  S28              3          0.5        4         

  
  ERROR 235: invalid infiltration parameters at line 183 of [INFIL] section:
  S29              3          0.5        4         

  
  ERROR 235: invalid infiltration parameters at line 184 of [INFIL] section:
  S30              3          0.5        4         

  
  ERROR 235: invalid infiltration parameters at line 185 of [INFIL] section:
  S31              3          0.5        4         

  
  ERROR 235: invalid infiltration parameters at line 186 of [INFIL] section:
  S32              3          0.5        4         

  
  ERROR 235: invalid infiltration parameters at line 187 of [INFIL] section:
  S33              3          0.5        4         

  
  ERROR 235: invalid infiltration parameters at line 188 of [INFIL] section:
  S34              3          0.5        4         

  
  ERROR 235: invalid infiltration parameters at line 189 of [INFIL] section:
  S36              3          0.5        4         

  
  ERROR 235: invalid infiltration parameters at line 190 of [INFIL] section:
  S37              3          0.5        4         

  
  ERROR 235: invalid infiltration parameters at line 191 of [INFIL] section:
  S38              3          0.5        4         

  
  ERROR 235: invalid infiltration parameters at line 192 of [INFIL] section:
  S39              3          0.5        4         

  
  ERROR 235: invalid infiltration parameters at line 193 of [INFIL] section:
  S40              3          0.5        4         

  
  ERROR 235: invalid infiltration parameters at line 194 of [INFIL] section:
  S41              3          0.5        4         

  
  ERROR 235: invalid infiltration parameters at line 195 of [INFIL] section:
  S42              3          0.5        4         

  
  ERROR 235: invalid infiltration parameters at line 196 of [INFIL] section:
  S43              3          0.5        4         

  
  ERROR 235: invalid infiltration parameters at line 197 of [INFIL] section:
  S44              3.0        0.5        4         

  
  ERROR 235: invalid infiltration parameters at line 198 of [INFIL] section:
  S35              3.0        0.5        4         

  
  ERROR 235: invalid infiltration parameters at line 199 of [INFIL] section:
  S45              3.0        0.5        4         


  Analysis begun on:  Tue Jun 23 21:17:44 2026
  Analysis ended on:  Tue Jun 23 21:17:44 2026
  Total elapsed time: < 1 sec