
  EPA STORM WATER MANAGEMENT MODEL - VERSION 5.2 (Build 5.2.4)
  ------------------------------------------------------------

  Scenario Run :  BASE 
  WARNING 04: minimum elevation drop used for Conduit RUS0010.1
  WARNING 04: minimum elevation drop used for Conduit TEN0170.1
  WARNING 04: minimum elevation drop used for Conduit TEN1120.3
  
  ****************
  Analysis Options
  ****************
  Flow Units ............... MGD
  Process Models:
    Rainfall/Runoff ........ YES
    RDII ................... NO
    Snowmelt ............... NO
    Groundwater ............ NO
    Flow Routing ........... YES
    Ponding Allowed ........ NO
    Water Quality .......... NO
  Infiltration Method ...... HORTON
  Flow Routing Method ...... DYNWAVE
  Surcharge Method ......... EXTRAN
  Starting Date ............ 05/14/2012 00:00:00
  Ending Date .............. 05/16/2012 23:00:00
  Antecedent Dry Days ...... 0.0
  Report Time Step ......... 00:05:00
  Wet Time Step ............ 00:05:00
  Dry Time Step ............ 01:00:00
  Routing Time Step ........ 5.00 sec
  Variable Time Step ....... YES
  Maximum Trials ........... 8
  Number of Threads ........ 1
  Head Tolerance ........... 0.001000 ft
  
  
  ERROR 331: cannot open hot start interface file C:\Users\Robert E Dickinson\Desktop\InfoWorks Files\InfoWorks Files\IW 2020\IW 2020 WCSMPU.HSDB\hotstart_file.HSF.

  Analysis begun on:  Tue Jun 23 21:18:10 2026
  Analysis ended on:  Tue Jun 23 21:18:10 2026
  Total elapsed time: < 1 sec