
  EPA STORM WATER MANAGEMENT MODEL - VERSION 5.2 (Build 5.2.4)
  ------------------------------------------------------------

  
  ****************
  Analysis Options
  ****************
  Flow Units ............... CFS
  Process Models:
    Rainfall/Runoff ........ YES
    RDII ................... NO
    Snowmelt ............... NO
    Groundwater ............ NO
    Flow Routing ........... YES
    Ponding Allowed ........ YES
    Water Quality .......... NO
  Infiltration Method ...... HORTON
  Flow Routing Method ...... DYNWAVE
  Surcharge Method ......... EXTRAN
  Starting Date ............ 01/01/1988 00:00:00
  Ending Date .............. 01/05/1988 23:00:00
  Antecedent Dry Days ...... 0.0
  Report Time Step ......... 00:10:00
  Wet Time Step ............ 00:01:00
  Dry Time Step ............ 01:00:00
  Routing Time Step ........ 5.00 sec
  Variable Time Step ....... YES
  Maximum Trials ........... 8
  Number of Threads ........ 1
  Head Tolerance ........... 0.001000 ft
  
  
  **************************        Volume         Depth
  Runoff Quantity Continuity     acre-feet        inches
  **************************     ---------       -------
  Total Precipitation ......       107.643         5.800
  Evaporation Loss .........         0.000         0.000
  Infiltration Loss ........         8.696         0.469
  Surface Runoff ...........        97.301         5.243
  Final Storage ............         1.648         0.089
  Continuity Error (%) .....        -0.001
  
  
  **************************        Volume        Volume
  Flow Routing Continuity        acre-feet      10^6 gal
  **************************     ---------     ---------
  Dry Weather Inflow .......         0.000         0.000
  Wet Weather Inflow .......        97.298        31.706
  Groundwater Inflow .......         0.000         0.000
  RDII Inflow ..............         0.000         0.000
  External Inflow ..........         0.000         0.000
  External Outflow .........        87.455        28.499
  Flooding Loss ............         9.827         3.202
  Evaporation Loss .........         0.000         0.000
  Exfiltration Loss ........         0.000         0.000
  Initial Stored Volume ....         0.000         0.000
  Final Stored Volume ......         0.023         0.008
  Continuity Error (%) .....        -0.008
  
  
  ***************************
  Time-Step Critical Elements
  ***************************
  Link 5655 (37.99%)
  Link 3837 (3.95%)
  Link 8180 (2.32%)
  Link 3736 (2.19%)
  Link 7038 (1.77%)
  
  
  ********************************
  Highest Flow Instability Indexes
  ********************************
  Link 5453 (13)
  Link 8887 (12)
  Link 3635 (11)
  Link 2221 (11)
  Link 3534 (11)
  
  
  *********************************
  Most Frequent Nonconverging Nodes
  *********************************
  Node OUT30 (3.60%)
  Node J35 (1.32%)
  Node J18 (1.01%)
  Node J36 (0.70%)
  Node J45 (0.59%)
  
  
  *************************
  Routing Time Step Summary
  *************************
  Minimum Time Step           :     0.12 sec
  Average Time Step           :     3.65 sec
  Maximum Time Step           :     5.00 sec
  % of Time in Steady State   :     0.00
  Average Iterations per Step :     2.78
  % of Steps Not Converging   :     3.60
  Time Step Frequencies       :
      5.000 -  0.910 sec      :    97.21 %
      0.910 -  0.166 sec      :     2.76 %
      0.166 -  0.030 sec      :     0.03 %
      0.030 -  0.005 sec      :     0.00 %
      0.005 -  0.001 sec      :     0.00 %
  
  
  ***************************
  Subcatchment Runoff Summary
  ***************************
  
  ------------------------------------------------------------------------------------------------------------------------------
                            Total      Total      Total      Total     Imperv       Perv      Total       Total     Peak  Runoff
                           Precip      Runon       Evap      Infil     Runoff     Runoff     Runoff      Runoff   Runoff   Coeff
  Subcatchment                 in         in         in         in         in         in         in    10^6 gal      CFS
  ------------------------------------------------------------------------------------------------------------------------------
  SDA1                       5.80       0.00       0.00       0.03       4.61       1.09       5.70        1.29     6.33   0.983
  SDA2                       5.80       0.00       0.00       0.11       1.44       4.09       5.53        1.30     6.55   0.954
  SDA3                       5.80       0.00       0.00       0.10       1.90       3.66       5.56        1.98     9.97   0.958
  SDA4                       5.80       0.00       0.00       0.11       1.15       4.37       5.52        1.42     7.18   0.951
  SDA5                       5.80       0.00       0.00       0.05       3.75       1.91       5.66        0.40     2.00   0.975
  SDA6                       5.80       0.00       0.00       0.18       5.19       0.40       5.59        0.07     0.37   0.964
  SDA7                       5.80       0.00       0.00       1.18       1.73       2.88       4.61        0.19     1.08   0.795
  SDA8                       5.80       0.00       0.00       0.24       1.44       3.96       5.40        0.51     2.66   0.931
  SDA9                       5.80       0.00       0.00       1.39       1.61       2.79       4.40        0.28     1.69   0.759
  SDA10                      5.80       0.00       0.00       0.54       4.15       1.09       5.23        0.39     2.01   0.902
  SDA11                      5.80       0.00       0.00       0.00       4.90       0.84       5.74        1.26     6.17   0.989
  SDA13                      5.80       0.00       0.00       0.04       4.26       1.42       5.68        1.13     5.59   0.980
  SDA14                      5.80       0.00       0.00       0.10       1.73       3.82       5.55        0.86     4.32   0.957
  SDA15                      5.80       0.00       0.00       1.45       1.44       2.90       4.34        0.81     4.90   0.749
  SDA16                      5.80       0.00       0.00       1.45       1.44       2.90       4.35        0.40     2.43   0.749
  SDA17                      5.80       0.00       0.00       1.33       1.44       3.02       4.46        0.45     2.67   0.769
  SDA18                      5.80       0.00       0.00       1.50       1.27       3.02       4.29        0.24     1.45   0.739
  SDA19                      5.80       0.00       0.00       0.04       4.03       1.64       5.67        2.34    11.56   0.978
  SDA20                      5.80       0.00       0.00       1.33       1.44       3.02       4.46        0.40     2.38   0.769
  SDA21                      5.80       0.00       0.00       0.53       4.03       1.21       5.24        0.17     0.89   0.904
  SDA22                      5.80       0.00       0.00       0.17       2.19       3.30       5.49        0.54     2.75   0.947
  SDA23                      5.80       0.00       0.00       1.10       2.19       2.49       4.68        0.39     2.20   0.808
  SDA24                      5.80       0.00       0.00       0.80       3.17       1.81       4.98        0.13     0.70   0.859
  SDA25                      5.80       0.00       0.00       0.50       4.15       1.13       5.28        0.16     0.83   0.910
  SDA26                      5.80       0.00       0.00       0.32       2.02       3.32       5.34        3.30    17.34   0.920
  SDA27                      5.80       0.00       0.00       0.10       1.61       3.93       5.54        1.70     8.59   0.956
  SDA28                      5.80       0.00       0.00       1.28       1.61       2.90       4.51        0.19     1.14   0.778
  SDA29                      5.80       0.00       0.00       0.04       4.06       1.64       5.70        1.46     7.16   0.982
  SDA30                      5.80       0.00       0.00       0.11       1.44       4.09       5.53        0.38     1.95   0.954
  SDA31                      5.80       0.00       0.00       0.01       5.19       0.55       5.73        0.32     1.57   0.988
  SDA32                      5.80       0.00       0.00       0.03       4.73       0.98       5.71        0.40     1.96   0.984
  SDA33                      5.80       0.00       0.00       0.09       2.19       3.38       5.57        0.29     1.47   0.961
  SDA34                      5.80       0.00       0.00       0.09       2.19       3.38       5.57        0.36     1.83   0.961
  SDA35                      5.80       0.00       0.00       0.31       2.19       3.17       5.35        1.52     7.93   0.923
  SDA36                      5.80       0.00       0.00       1.74       0.58       3.48       4.06        0.99     6.33   0.700
  SDA37                      5.80       0.00       0.00       1.25       2.02       2.52       4.53        2.72    15.95   0.782
  SDA38                      5.80       0.00       0.00       0.06       3.46       2.18       5.64        0.70     3.46   0.973
  SDA39                      5.80       0.00       0.00       0.07       2.88       2.73       5.61        0.25     1.25   0.967
  
  
  ******************
  Node Depth Summary
  ******************
  
  ---------------------------------------------------------------------------------
                                 Average  Maximum  Maximum  Time of Max    Reported
                                   Depth    Depth      HGL   Occurrence   Max Depth
  Node                 Type         Feet     Feet     Feet  days hr:min        Feet
  ---------------------------------------------------------------------------------
  J10                  JUNCTION     0.19     1.68    52.91     0  14:04        1.67
  J11                  JUNCTION     0.72     4.38    59.73     0  14:14        4.38
  J12                  JUNCTION     0.50     3.58    59.73     0  14:14        3.58
  J13                  JUNCTION     0.98     6.87    64.08     0  15:05        6.86
  J15                  JUNCTION     0.17     0.88    69.88     0  14:00        0.88
  J16                  JUNCTION     0.36     1.88    71.57     0  14:00        1.88
  J17                  JUNCTION     0.02     0.13    74.13     0  14:00        0.13
  J18                  JUNCTION     0.12     0.73    75.23     0  14:00        0.73
  J19                  JUNCTION     0.00     0.00    54.46     0  00:00        0.00
  J20                  JUNCTION     0.11     0.64    54.78     0  14:00        0.64
  J21                  JUNCTION     0.69     1.76    55.43     0  14:00        1.76
  J22                  JUNCTION     0.26     1.68    62.57     0  14:00        1.68
  J23                  JUNCTION     0.12     0.70    66.63     0  14:00        0.70
  J24                  JUNCTION     0.09     0.50    71.91     0  14:00        0.50
  J25                  JUNCTION     0.18     1.13    74.51     0  14:00        1.13
  J26                  JUNCTION     0.11     0.65    75.54     0  14:00        0.65
  J27                  JUNCTION     0.23     1.52    77.07     0  14:00        1.52
  J28                  JUNCTION     1.90     2.50    66.64     0  14:00        2.50
  J29                  JUNCTION     0.13     0.85    71.87     0  14:00        0.85
  J31                  JUNCTION     0.70     2.50    39.24     0  14:00        2.50
  J32                  JUNCTION     0.61     2.13    42.21     0  14:00        2.13
  J34                  JUNCTION     0.51     2.07    44.15     0  14:00        2.07
  J35                  JUNCTION     0.84     3.61    46.74     0  13:56        3.61
  J36                  JUNCTION     0.85     3.77    48.94     0  14:00        3.77
  J37                  JUNCTION     0.97     4.86    50.63     0  14:00        4.85
  J38                  JUNCTION     1.09     5.78    51.78     0  14:00        5.78
  J40                  JUNCTION     0.26     1.84    56.57     0  13:57        1.84
  J41                  JUNCTION     0.15     0.69    58.86     0  13:54        0.69
  J42                  JUNCTION     0.19     1.18    60.07     0  13:53        1.18
  J43                  JUNCTION     0.02     0.13    61.43     0  13:53        0.13
  J44                  JUNCTION     0.14     0.85    64.14     0  13:17        0.83
  J45                  JUNCTION     0.20     1.42    66.98     0  13:17        1.35
  J46                  JUNCTION     0.20     1.29    71.71     0  12:48        1.25
  J47                  JUNCTION     0.20     1.30    77.18     0  13:56        1.29
  J48                  JUNCTION     0.20     1.30    82.67     0  13:21        1.25
  J49                  JUNCTION     0.05     0.27    90.27     0  14:00        0.27
  J50                  JUNCTION     0.17     0.53    48.20     0  16:00        0.53
  J51                  JUNCTION     0.64     1.93    52.44     0  16:00        1.93
  J52                  JUNCTION     0.30     0.82    54.31     0  16:00        0.82
  J53                  JUNCTION     0.45     1.15    54.65     0  16:00        1.15
  J54                  JUNCTION     0.53     1.49    57.54     0  16:00        1.49
  J55                  JUNCTION     0.17     0.51    58.52     0  16:01        0.51
  J57                  JUNCTION     1.45     4.75    66.30     0  16:00        4.75
  J59                  JUNCTION     0.04     0.28    78.67     0  14:00        0.28
  J60                  JUNCTION     0.07     0.36    69.51     0  14:00        0.36
  J61                  JUNCTION     0.08     0.45    72.05     0  14:00        0.45
  J62                  JUNCTION     0.02     0.14    72.91     0  14:00        0.14
  J63                  JUNCTION     0.10     0.69    78.69     0  14:00        0.69
  J64                  JUNCTION     0.07     0.35    82.34     0  14:00        0.35
  J65                  JUNCTION     0.05     0.31    83.30     0  14:00        0.31
  J70                  JUNCTION     1.40     6.98    52.91     0  14:04        6.97
  J71                  JUNCTION     1.19     6.58    52.91     0  14:04        6.57
  J72                  JUNCTION     1.03     5.88    53.35     0  14:01        5.88
  J73                  JUNCTION     0.82     4.83    53.35     0  14:00        4.83
  J74                  JUNCTION     1.15     5.27    53.63     0  14:00        5.27
  J75                  JUNCTION     0.52     3.65    53.63     0  14:00        3.65
  J76                  JUNCTION     0.29     1.61    54.19     0  14:00        1.61
  J78                  JUNCTION     0.27     1.67    57.27     0  14:00        1.67
  J79                  JUNCTION     0.67     5.36    61.79     0  14:00        5.36
  J80                  JUNCTION     0.17     1.00    61.94     0  14:00        1.00
  J81                  JUNCTION     0.69     4.51    65.36     0  14:00        4.51
  J82                  JUNCTION     0.32     3.31    65.37     0  14:00        3.31
  J83                  JUNCTION     0.35     2.51    66.07     0  14:00        2.51
  J84                  JUNCTION     0.51     2.70    67.26     0  14:00        2.70
  J85                  JUNCTION     0.26     1.82    67.37     0  13:59        1.82
  J86                  JUNCTION     0.29     1.93    67.49     0  13:59        1.93
  J87                  JUNCTION     0.08     0.51    74.02     0  13:53        0.51
  J88                  JUNCTION     0.14     0.90    75.66     0  13:45        0.89
  J89                  JUNCTION     0.05     0.33    77.71     0  14:00        0.33
  J90                  JUNCTION     0.09     0.53    80.45     0  14:00        0.53
  J91                  JUNCTION     0.24     1.55    82.28     0  14:00        1.55
  J92                  JUNCTION     0.48     1.44    49.44     0  16:00        1.43
  J93                  JUNCTION     0.76     1.72    49.22     0  16:00        1.72
  OUT30                OUTFALL      0.45     1.75    35.75     0  14:00        1.75
  SU14                 STORAGE      0.29     2.77    64.08     0  15:05        2.76
  SU33                 STORAGE      0.65     2.26    44.04     0  14:00        2.26
  SU39                 STORAGE      0.50     3.95    52.29     0  14:06        3.95
  SU56                 STORAGE      3.33     8.36    66.30     0  16:01        8.36
  SU58                 STORAGE      1.52     6.04    68.53     0  16:15        6.04
  112                  STORAGE      0.59     3.00    53.25     0  12:06        3.00
  
  
  *******************
  Node Inflow Summary
  *******************
  
  -------------------------------------------------------------------------------------------------
                                  Maximum  Maximum                  Lateral       Total        Flow
                                  Lateral    Total  Time of Max      Inflow      Inflow     Balance
                                   Inflow   Inflow   Occurrence      Volume      Volume       Error
  Node                 Type           CFS      CFS  days hr:min    10^6 gal    10^6 gal     Percent
  -------------------------------------------------------------------------------------------------
  J10                  JUNCTION      0.00    12.44     0  15:48           0         4.1       0.010
  J11                  JUNCTION      2.66    12.51     0  14:00       0.513         4.1      -0.001
  J12                  JUNCTION      0.00    10.75     0  16:13           0        3.58      -0.002
  J13                  JUNCTION      1.08    11.20     0  12:06       0.189        3.58       0.020
  J15                  JUNCTION      0.00     9.97     0  14:00           0        1.98      -0.140
  J16                  JUNCTION      9.97     9.97     0  14:00        1.98        1.98      -0.000
  J17                  JUNCTION      0.00     2.38     0  14:00           0       0.403      -0.265
  J18                  JUNCTION      2.38     2.38     0  14:00       0.403       0.403      -0.023
  J19                  JUNCTION      0.00     0.00     0  00:00           0           0       0.000 gal
  J20                  JUNCTION      0.00    12.28     0  14:00           0        2.47      -0.021
  J21                  JUNCTION      4.32    12.28     0  14:00       0.856        2.47      -0.011
  J22                  JUNCTION      0.00     7.96     0  14:00           0        1.61       0.036
  J23                  JUNCTION      0.00     7.96     0  14:00           0        1.61      -0.007
  J24                  JUNCTION      0.00     5.59     0  14:00           0        1.13       0.057
  J25                  JUNCTION      0.00     5.59     0  14:00           0        1.13      -0.052
  J26                  JUNCTION      0.00     5.59     0  14:00           0        1.13      -0.020
  J27                  JUNCTION      5.59     5.59     0  14:00        1.13        1.13       0.014
  J28                  JUNCTION      0.37     2.37     0  14:00      0.0744       0.479       0.352
  J29                  JUNCTION      2.00     2.00     0  14:00       0.404       0.404      -0.023
  J31                  JUNCTION      0.00    79.37     0  14:00           0        28.5       0.000
  J32                  JUNCTION      6.33    79.38     0  14:00        1.29        28.5      -0.000
  J34                  JUNCTION      0.00    49.85     0  13:58           0        17.7       0.005
  J35                  JUNCTION      0.00    49.85     0  14:00           0        17.7      -0.020
  J36                  JUNCTION      2.01    49.85     0  13:59       0.385        17.7      -0.004
  J37                  JUNCTION      0.00    48.16     0  14:07           0        17.4      -0.001
  J38                  JUNCTION      0.00    48.16     0  14:07           0        17.4       0.000
  J40                  JUNCTION      0.00     6.88     0  13:54           0        1.34       0.009
  J41                  JUNCTION      1.45     6.88     0  13:53       0.236        1.34      -0.024
  J42                  JUNCTION      1.57     4.56     0  13:53       0.322       0.935       0.035
  J43                  JUNCTION      0.00     4.85     0  13:17           0       0.948      -0.007
  J44                  JUNCTION      0.00     5.16     0  13:17           0       0.948      -0.019
  J45                  JUNCTION      0.00     7.83     0  13:26           0       0.949       0.058
  J46                  JUNCTION      0.00     7.36     0  13:21           0       0.948      -0.023
  J47                  JUNCTION      0.00     6.24     0  13:44           0       0.948      -0.020
  J48                  JUNCTION      3.46     4.71     0  14:00       0.697       0.948       0.003
  J49                  JUNCTION      1.25     1.25     0  14:00       0.251       0.251      -0.002
  J50                  JUNCTION      6.17    17.06     0  16:00        1.26        8.17       0.001
  J51                  JUNCTION      0.00    13.45     0  16:00           0        6.57      -0.015
  J52                  JUNCTION      1.96    13.46     0  16:00         0.4        6.57      -0.000
  J53                  JUNCTION      0.00    12.56     0  16:00           0        6.17       0.014
  J54                  JUNCTION      1.47    12.58     0  16:00       0.292        6.17      -0.013
  J55                  JUNCTION      0.00    11.92     0  16:01           0        5.88       0.000
  J57                  JUNCTION      7.93    16.04     0  14:00        1.52        5.51       0.008
  J59                  JUNCTION     15.95    15.95     0  14:00        2.72        2.72      -0.423
  J60                  JUNCTION      0.00     0.89     0  14:00           0       0.171      -0.153
  J61                  JUNCTION      0.89     0.89     0  14:00       0.171       0.171       0.125
  J62                  JUNCTION      0.00     1.52     0  14:00           0       0.288      -0.665
  J63                  JUNCTION      0.70     1.52     0  14:00       0.128       0.288      -0.015
  J64                  JUNCTION      0.00     0.83     0  14:00           0       0.159       0.001
  J65                  JUNCTION      0.83     0.83     0  14:00       0.159       0.159      -0.000
  J70                  JUNCTION      1.69    40.38     0  12:09       0.282        15.2       0.001
  J71                  JUNCTION      0.00    41.35     0  12:09           0        14.9      -0.039
  J72                  JUNCTION      2.43    34.06     0  12:07       0.401        10.8       0.056
  J73                  JUNCTION      0.00    33.18     0  12:07           0        10.4      -0.012
  J74                  JUNCTION      0.00    34.93     0  12:06           0        10.4       0.022
  J75                  JUNCTION      4.90    59.96     0  14:00       0.809        13.1       0.003
  J76                  JUNCTION      0.00    52.67     0  14:00           0        10.3      -0.004
  J78                  JUNCTION      0.00    52.67     0  14:00           0        10.3       0.005
  J79                  JUNCTION     11.56    52.69     0  14:00        2.34        10.3      -0.004
  J80                  JUNCTION      0.00    41.13     0  14:00           0        7.97      -0.001
  J81                  JUNCTION      0.00    41.13     0  13:58           0        7.97       0.004
  J82                  JUNCTION      2.20    41.13     0  14:00       0.388        7.97       0.052
  J83                  JUNCTION      2.75    38.93     0  14:00        0.54        7.58      -0.056
  J84                  JUNCTION     17.34    36.17     0  13:59         3.3        7.04       0.008
  J85                  JUNCTION      0.00    11.68     0  13:59           0        2.28       0.000
  J86                  JUNCTION      8.59    11.68     0  13:53         1.7        2.28      -0.000
  J87                  JUNCTION      0.00     3.22     0  13:45           0       0.579      -0.015
  J88                  JUNCTION      1.14     3.09     0  14:00       0.195       0.579       0.020
  J89                  JUNCTION      1.95     1.95     0  14:00       0.385       0.385      -0.004
  J90                  JUNCTION      0.00     7.16     0  13:59           0        1.46      -0.015
  J91                  JUNCTION      7.16     7.16     0  14:00        1.46        1.46      -0.025
  J92                  JUNCTION      0.00    14.23     0  16:00           0         6.9       0.013
  J93                  JUNCTION      0.00    14.23     0  16:00           0         6.9       0.005
  OUT30                OUTFALL       0.00    79.35     0  14:00           0        28.5       0.000
  SU14                 STORAGE       7.18    17.15     0  14:00        1.42         3.4       0.065
  SU33                 STORAGE       6.55    73.13     0  14:00         1.3        27.2       0.000
  SU39                 STORAGE       2.67    11.93     0  13:57       0.452         2.2       0.049
  SU56                 STORAGE       1.83    15.29     0  13:59       0.365        5.88       0.039
  SU58                 STORAGE       6.33    22.28     0  14:00       0.989        3.72       0.407
  112                  STORAGE       0.00    47.36     0  14:00           0        3.43       0.003
  
  
  **********************
  Node Surcharge Summary
  **********************
  
  Surcharging occurs when water rises above the top of the highest conduit.
  ---------------------------------------------------------------------
                                               Max. Height   Min. Depth
                                   Hours       Above Crown    Below Rim
  Node                 Type      Surcharged           Feet         Feet
  ---------------------------------------------------------------------
  J35                  JUNCTION        5.57          0.359       53.261
  J36                  JUNCTION        6.66          0.685       51.055
  J37                  JUNCTION        9.35          1.855       49.375
  J91                  JUNCTION        0.99          0.051       17.719
  
  
  *********************
  Node Flooding Summary
  *********************
  
  Flooding refers to all water that overflows a node, whether it ponds or not.
  --------------------------------------------------------------------------
                                                             Total   Maximum
                                 Maximum   Time of Max       Flood    Ponded
                        Hours       Rate    Occurrence      Volume     Depth
  Node                 Flooded       CFS   days hr:min    10^6 gal      Feet
  --------------------------------------------------------------------------
  112                     4.13     47.36      0  14:00       3.202     0.000
  
  
  **********************
  Storage Volume Summary
  **********************
  
  ------------------------------------------------------------------------------------------------
                         Average    Avg   Evap  Exfil     Maximum    Max    Time of Max    Maximum
                          Volume   Pcnt   Pcnt   Pcnt      Volume   Pcnt     Occurrence    Outflow
  Storage Unit          1000 ftł   Full   Loss   Loss    1000 ftł   Full    days hr:min        CFS
  ------------------------------------------------------------------------------------------------
  SU14                     4.443    0.9    0.0    0.0      53.317   11.2       0  15:05      10.31
  SU33                     1.161    0.1    0.0    0.0       6.197    0.4       0  14:00      73.08
  SU39                     0.317    0.1    0.0    0.0       4.091    0.7       0  14:06      10.36
  SU56                    59.069   15.2    0.0    0.0     182.587   47.1       0  16:01      11.92
  SU58                     3.630    2.2    0.0    0.0      22.787   13.9       0  16:15       7.13
  112                      5.888   19.6    0.0    0.0      30.000  100.0       0  12:06       2.73
  
  
  ***********************
  Outfall Loading Summary
  ***********************
  
  -----------------------------------------------------------
                         Flow       Avg       Max       Total
                         Freq      Flow      Flow      Volume
  Outfall Node           Pcnt       CFS       CFS    10^6 gal
  -----------------------------------------------------------
  OUT30                 99.34     15.20     79.35      28.496
  -----------------------------------------------------------
  System                99.34     15.20     79.35      28.496
  
  
  ********************
  Link Flow Summary
  ********************
  
  -----------------------------------------------------------------------------
                                 Maximum  Time of Max   Maximum    Max/    Max/
                                  |Flow|   Occurrence   |Veloc|    Full    Full
  Link                 Type          CFS  days hr:min    ft/sec    Flow   Depth
  -----------------------------------------------------------------------------
  3130                 CONDUIT     79.35     0  14:00      5.23    0.16    0.35
  3231                 CONDUIT     79.37     0  14:00      8.91    0.38    0.46
  3332                 CONDUIT     73.08     0  14:00      7.85    0.49    0.44
  5033                 CONDUIT     17.06     0  16:00      1.97    0.00    0.07
  5142                 CONDUIT      0.00     0  00:00      0.00    0.00    0.00
  5251                 CONDUIT     13.45     0  16:00      4.25    0.16    0.46
  5352                 CONDUIT     12.57     0  16:00      2.13    0.01    0.05
  5453                 CONDUIT     12.56     0  16:00      4.85    0.21    0.53
  5554                 CONDUIT     11.92     0  16:01      1.84    0.00    0.05
  5655                 CONDUIT      6.59     0  16:01     10.37    9.50    0.75
  5600                 CONDUIT      5.33     0  16:01      0.95    0.04    0.12
  5756                 CONDUIT     13.46     0  13:59      0.73    0.01    0.66
  5857                 CONDUIT      7.13     0  16:24      5.81    1.51    1.00
  5958                 CONDUIT     15.95     0  14:00      0.37    0.00    0.31
  3433                 CONDUIT     49.84     0  14:00      2.46    0.00    0.11
  3534                 CONDUIT     49.85     0  13:58      7.89    1.15    0.84
  3635                 CONDUIT     49.85     0  14:00      7.05    1.07    1.00
  3736                 CONDUIT     48.17     0  14:08      6.81    1.75    1.00
  3837                 CONDUIT     48.16     0  14:07      6.81    2.26    1.00
  3834                 CONDUIT      0.00     0  00:00      0.00    0.00    0.00
  3938                 CONDUIT     10.36     0  14:08      3.30    0.61    1.00
  1939                 CONDUIT      0.00     0  00:00      0.00    0.00    0.20
  1972                 CONDUIT      0.00     0  00:00      0.00    0.00    0.15
  1739                 CONDUIT      2.38     0  14:00      0.32    0.00    0.20
  1817                 CONDUIT      2.38     0  14:00      6.17    0.35    0.29
  4039                 CONDUIT      6.88     0  13:57      5.82    1.01    0.92
  4140                 CONDUIT      6.88     0  13:54      2.81    0.00    0.13
  6041                 CONDUIT      0.89     0  14:00      1.38    0.00    0.05
  6160                 CONDUIT      0.89     0  14:00      3.00    0.17    0.40
  6257                 CONDUIT      1.52     0  14:00      0.47    0.00    0.24
  6362                 CONDUIT      1.52     0  14:00      5.48    0.17    0.41
  6463                 CONDUIT      0.83     0  14:00      2.70    0.00    0.03
  6564                 CONDUIT      0.83     0  14:00      3.20    0.13    0.26
  4241                 CONDUIT      4.54     0  13:53      4.05    0.58    0.62
  4342                 CONDUIT      2.98     0  13:53      0.39    0.00    0.11
  4443                 CONDUIT      4.85     0  13:17     10.97    0.66    0.39
  4544                 CONDUIT      5.16     0  13:17      4.71    0.68    0.84
  4645                 CONDUIT      7.83     0  13:26      6.38    0.69    1.00
  4746                 CONDUIT      7.36     0  13:21      6.00    0.66    1.00
  4847                 CONDUIT      6.24     0  13:44      5.09    0.62    1.00
  48471                CONDUIT      0.00     0  00:00      0.00    0.00    0.00
  47461                CONDUIT      0.00     0  00:00      0.00    0.00    0.00
  46451                CONDUIT      0.00     0  00:00      0.00    0.00    0.00
  45441                CONDUIT      0.00     0  00:00      0.00    0.00    0.00
  44431                CONDUIT      0.00     0  00:00      0.00    0.00    0.00
  42411                CONDUIT      0.00     0  00:00      0.00    0.00    0.00
  4948                 CONDUIT      1.25     0  14:00      2.79    0.00    0.04
  7038                 CONDUIT     40.06     0  16:34      5.67    4.08    1.00
  7170                 CONDUIT     39.29     0  16:30      1.18    0.00    0.34
  1071                 CONDUIT     12.66     0  15:21      0.89    0.00    0.21
  1110                 CONDUIT     12.44     0  15:48     11.89    1.29    1.00
  1211                 CONDUIT     11.00     0  16:09      1.17    0.00    0.20
  1312                 CONDUIT     10.75     0  16:13      8.76    2.02    1.00
  1413                 CONDUIT     10.31     0  12:06      1.30    0.00    0.48
  1514                 CONDUIT      9.97     0  14:00      3.18    0.00    0.18
  1615                 CONDUIT      4.84     0  14:00      6.83    1.45    0.94
  16151                CONDUIT      5.12     0  14:00      2.03    0.00    0.02
  7271                 CONDUIT     31.23     0  12:09      4.90    0.77    1.00
  72711                CONDUIT      0.00     0  00:00      0.00    0.00    0.00
  7372                 CONDUIT     32.04     0  12:07      3.59    0.00    0.27
  74730                CONDUIT     14.16     0  10:33      4.52    1.49    1.00
  74731                CONDUIT     14.16     0  10:33      4.51    1.21    1.00
  74732                CONDUIT      6.97     0  12:07      3.95    0.70    1.00
  74733                CONDUIT      0.00     0  00:00      0.00    0.00    0.00
  7574                 CONDUIT     34.93     0  12:06      1.86    0.00    0.22
  7675                 CONDUIT     42.78     0  14:00      5.32    0.00    0.13
  7877                 CONDUIT     52.67     0  14:00      7.45    0.00    0.08
  7978                 CONDUIT     52.67     0  14:00     12.03    2.09    0.83
  79781                CONDUIT      0.00     0  00:00      0.00    0.00    0.00
  8079                 CONDUIT     41.13     0  14:00      2.44    0.00    0.16
  80791                CONDUIT      0.00     0  00:00      0.00    0.00    0.00
  8180                 CONDUIT     38.97     0  14:00     10.61    4.96    0.70
  81801                CONDUIT      2.17     0  14:00      2.30    0.00    0.02
  8281                 CONDUIT     41.13     0  13:58      2.30    0.00    0.20
  82811                CONDUIT      0.00     0  00:00      0.00    0.00    0.01
  8382                 CONDUIT     13.78     0  12:14      4.42    0.95    1.00
  83821                CONDUIT      0.00     0  00:00      0.00    0.00    0.00
  8483                 CONDUIT     36.17     0  14:00      4.42    0.01    0.13
  8584                 CONDUIT     11.68     0  14:00      1.21    0.00    0.11
  86850                CONDUIT      5.84     0  13:59      1.91    3.11    0.94
  86851                CONDUIT      5.84     0  13:59      1.91    3.11    0.94
  868511               CONDUIT      0.00     0  00:00      0.00    0.00    0.00
  8786                 CONDUIT      3.09     0  13:53      0.96    0.00    0.06
  8887                 CONDUIT      3.22     0  13:45      4.22    0.31    0.47
  8988                 CONDUIT      1.95     0  14:00      1.64    0.00    0.03
  9084                 CONDUIT      7.16     0  14:00      2.21    0.00    0.08
  9190                 CONDUIT      7.16     0  13:59      5.62    0.77    0.68
  2075                 CONDUIT     12.28     0  14:00      2.07    0.00    0.11
  2120                 CONDUIT     12.28     0  14:00      3.86    0.23    0.30
  2221                 CONDUIT      7.96     0  14:00      4.90    1.34    0.86
  2322                 CONDUIT      7.96     0  14:00      1.94    0.00    0.06
  2423                 CONDUIT      5.59     0  14:00      3.75    0.00    0.03
  2524                 CONDUIT      5.59     0  14:00      5.21    0.24    0.41
  2625                 CONDUIT      5.59     0  14:00      2.35    0.00    0.04
  2726                 CONDUIT      5.59     0  14:00      5.60    1.32    0.76
  27261                CONDUIT      0.00     0  00:00      0.00    0.00    0.00
  2823                 CONDUIT      2.37     0  14:00      0.72    0.07    0.64
  2928                 CONDUIT      2.00     0  14:00      2.63    0.27    0.93
  29281                CONDUIT      0.00     0  00:00      0.00    0.00    0.00
  2814                 CONDUIT      0.00     0  00:00      0.00    0.00    0.00
  5192                 CONDUIT     13.45     0  16:00      4.76    0.40    0.84
  4392                 CONDUIT      1.75     0  13:53      1.49    0.00    0.02
  9293                 CONDUIT     14.23     0  16:00      2.68    0.60    0.79
  9350                 CONDUIT     14.22     0  16:00      5.90    0.70    0.37
  83822                CONDUIT     29.20     0  14:00      4.88    0.34    0.92
  11275                ORIFICE      0.33     0  19:39                          
  76112                WEIR         9.88     0  14:00                      0.03
  11275X               WEIR        37.48     0  14:00                      0.07
  
  
  ***************************
  Flow Classification Summary
  ***************************
  
  -------------------------------------------------------------------------------------
                      Adjusted    ---------- Fraction of Time in Flow Class ---------- 
                       /Actual         Up    Down  Sub   Sup   Up    Down  Norm  Inlet 
  Conduit               Length    Dry  Dry   Dry   Crit  Crit  Crit  Crit  Ltd   Ctrl  
  -------------------------------------------------------------------------------------
  3130                    1.00   0.01  0.00  0.00  0.99  0.00  0.00  0.00  0.00  0.04
  3231                    1.17   0.01  0.00  0.00  0.52  0.47  0.00  0.00  0.52  0.00
  3332                    1.00   0.01  0.00  0.00  0.96  0.03  0.00  0.00  0.59  0.00
  5033                    1.71   0.01  0.00  0.00  0.99  0.00  0.00  0.00  0.99  0.00
  5142                    1.00   1.00  0.00  0.00  0.00  0.00  0.00  0.00  0.00  0.00
  5251                    1.00   0.01  0.00  0.00  0.88  0.11  0.00  0.00  0.99  0.00
  5352                    1.20   0.01  0.00  0.00  0.99  0.00  0.00  0.00  0.00  0.00
  5453                    1.33   0.01  0.00  0.00  0.99  0.00  0.00  0.00  0.00  0.99
  5554                    3.61   0.01  0.00  0.00  0.99  0.00  0.00  0.00  0.99  0.00
  5655                    1.00   0.01  0.00  0.00  0.64  0.34  0.00  0.00  0.00  0.00
  5600                    1.00   0.92  0.01  0.00  0.00  0.00  0.08  0.00  0.00  0.00
  5756                    1.00   0.01  0.00  0.00  0.99  0.00  0.00  0.00  0.71  0.00
  5857                    1.00   0.01  0.00  0.00  0.32  0.68  0.00  0.00  0.00  0.52
  5958                    1.00   0.01  0.51  0.00  0.49  0.00  0.00  0.00  0.98  0.00
  3433                    2.43   0.01  0.00  0.00  0.99  0.00  0.00  0.00  0.61  0.00
  3534                    2.00   0.01  0.00  0.00  0.94  0.06  0.00  0.00  0.00  0.37
  3635                    1.00   0.01  0.00  0.00  0.19  0.00  0.00  0.80  0.00  0.32
  3736                    1.00   0.01  0.00  0.00  0.25  0.00  0.00  0.74  0.00  0.13
  3837                    4.02   0.01  0.00  0.00  0.99  0.00  0.00  0.00  0.78  0.00
  3834                    1.00   1.00  0.00  0.00  0.00  0.00  0.00  0.00  0.00  0.00
  3938                    1.00   0.01  0.00  0.00  0.14  0.00  0.00  0.85  0.00  0.19
  1939                    2.41   0.01  0.99  0.00  0.00  0.00  0.00  0.00  0.00  0.00
  1972                    1.82   0.01  0.99  0.00  0.00  0.00  0.00  0.00  0.00  0.00
  1739                    1.00   0.01  0.57  0.00  0.42  0.00  0.00  0.00  0.99  0.00
  1817                    1.50   0.01  0.00  0.00  0.79  0.20  0.00  0.00  0.00  0.92
  4039                    1.86   0.01  0.00  0.00  0.00  0.00  0.00  0.99  0.00  0.23
  4140                    1.04   0.01  0.00  0.00  0.77  0.22  0.00  0.00  0.24  0.00
  6041                    1.00   0.01  0.00  0.00  0.99  0.00  0.00  0.00  0.99  0.00
  6160                    1.00   0.01  0.07  0.00  0.92  0.00  0.00  0.00  0.00  0.99
  6257                    1.00   0.01  0.65  0.00  0.34  0.00  0.00  0.00  0.99  0.00
  6362                    2.10   0.01  0.00  0.00  0.74  0.25  0.00  0.00  0.00  0.99
  6463                    1.73   0.01  0.00  0.00  0.00  0.00  0.00  0.99  0.00  0.00
  6564                    1.29   0.01  0.59  0.00  0.35  0.05  0.00  0.00  0.99  0.00
  4241                    1.18   0.01  0.11  0.00  0.88  0.00  0.00  0.00  0.00  0.99
  4342                    1.42   0.12  0.52  0.00  0.36  0.00  0.00  0.00  0.98  0.00
  4443                    1.00   0.01  0.00  0.00  0.67  0.32  0.00  0.00  0.05  0.00
  4544                    1.00   0.01  0.03  0.00  0.96  0.00  0.00  0.00  0.00  0.93
  4645                    1.00   0.01  0.00  0.00  0.92  0.08  0.00  0.00  0.00  0.32
  4746                    1.00   0.01  0.00  0.00  0.99  0.00  0.00  0.00  0.00  0.93
  4847                    1.00   0.01  0.00  0.00  0.93  0.06  0.00  0.00  0.00  0.28
  48471                   1.00   1.00  0.00  0.00  0.00  0.00  0.00  0.00  0.00  0.00
  47461                   1.00   1.00  0.00  0.00  0.00  0.00  0.00  0.00  0.00  0.00
  46451                   1.00   1.00  0.00  0.00  0.00  0.00  0.00  0.00  0.00  0.00
  45441                   1.00   1.00  0.00  0.00  0.00  0.00  0.00  0.00  0.00  0.00
  44431                   1.00   1.00  0.00  0.00  0.00  0.00  0.00  0.00  0.00  0.00
  42411                   2.70   1.00  0.00  0.00  0.00  0.00  0.00  0.00  0.00  0.00
  4948                    1.00   0.52  0.00  0.00  0.00  0.00  0.00  0.48  0.00  0.00
  7038                    1.00   0.01  0.00  0.00  0.99  0.00  0.00  0.00  0.00  0.00
  7170                    1.26   0.01  0.00  0.00  0.99  0.00  0.00  0.00  0.78  0.00
  1071                    4.46   0.01  0.00  0.00  0.99  0.00  0.00  0.00  0.94  0.00
  1110                    1.00   0.01  0.00  0.00  0.19  0.80  0.00  0.00  0.00  0.35
  1211                    1.85   0.01  0.00  0.00  0.99  0.00  0.00  0.00  0.86  0.00
  1312                    1.00   0.01  0.00  0.00  0.78  0.21  0.00  0.00  0.00  0.20
  1413                    1.00   0.01  0.00  0.00  0.99  0.00  0.00  0.00  0.93  0.00
  1514                    1.00   0.01  0.00  0.00  0.99  0.00  0.00  0.00  0.85  0.00
  1615                    1.66   0.01  0.00  0.00  0.83  0.16  0.00  0.00  0.00  0.62
  16151                   5.85   0.96  0.00  0.00  0.00  0.00  0.00  0.04  0.00  0.00
  7271                    1.00   0.01  0.00  0.00  0.99  0.00  0.00  0.00  0.00  0.24
  72711                   1.00   1.00  0.00  0.00  0.00  0.00  0.00  0.00  0.00  0.00
  7372                    3.00   0.01  0.00  0.00  0.37  0.62  0.00  0.00  0.11  0.00
  74730                   1.25   0.01  0.00  0.00  0.13  0.00  0.86  0.00  0.00  0.00
  74731                   1.33   0.01  0.78  0.00  0.21  0.00  0.00  0.00  0.00  0.86
  74732                   1.43   0.92  0.01  0.00  0.07  0.00  0.00  0.00  0.00  0.87
  74733                   1.60   1.00  0.00  0.00  0.00  0.00  0.00  0.00  0.00  0.00
  7574                    1.31   0.01  0.00  0.00  0.99  0.00  0.00  0.00  0.91  0.00
  7675                    1.00   0.01  0.00  0.00  0.94  0.05  0.00  0.00  0.87  0.00
  7877                    1.23   0.01  0.00  0.00  0.86  0.13  0.00  0.00  0.95  0.00
  7978                    1.26   0.01  0.00  0.00  0.84  0.15  0.00  0.00  0.00  0.23
  79781                   1.00   1.00  0.00  0.00  0.00  0.00  0.00  0.00  0.00  0.00
  8079                    5.01   0.01  0.00  0.00  0.99  0.00  0.00  0.00  0.99  0.00
  80791                   4.13   1.00  0.00  0.00  0.00  0.00  0.00  0.00  0.00  0.00
  8180                    2.20   0.01  0.00  0.00  0.90  0.09  0.00  0.00  0.00  0.00
  81801                   7.87   0.99  0.00  0.00  0.00  0.00  0.00  0.01  0.00  0.00
  8281                    3.36   0.01  0.00  0.00  0.99  0.00  0.00  0.00  0.93  0.00
  82811                   1.98   0.99  0.01  0.00  0.00  0.00  0.00  0.00  0.00  0.00
  8382                    1.00   0.01  0.00  0.00  0.95  0.04  0.00  0.00  0.00  0.58
  83821                   2.42   1.00  0.00  0.00  0.00  0.00  0.00  0.00  0.00  0.00
  8483                    1.00   0.01  0.00  0.00  0.99  0.00  0.00  0.00  0.00  0.00
  8584                    1.00   0.01  0.01  0.00  0.98  0.00  0.00  0.00  0.88  0.00
  86850                   2.16   0.01  0.00  0.00  0.99  0.00  0.00  0.00  0.00  0.14
  86851                   2.16   0.01  0.00  0.00  0.99  0.00  0.00  0.00  0.00  0.14
  868511                  2.15   1.00  0.00  0.00  0.00  0.00  0.00  0.00  0.00  0.00
  8786                    1.00   0.01  0.12  0.00  0.88  0.00  0.00  0.00  0.99  0.00
  8887                    1.33   0.01  0.00  0.00  0.87  0.12  0.00  0.00  0.00  0.79
  8988                    2.99   0.01  0.11  0.00  0.89  0.00  0.00  0.00  0.99  0.00
  9084                    1.00   0.01  0.44  0.00  0.55  0.00  0.00  0.00  0.99  0.00
  9190                    1.52   0.01  0.00  0.00  0.80  0.20  0.00  0.00  0.00  0.89
  2075                    1.83   0.01  0.11  0.00  0.88  0.00  0.00  0.00  0.99  0.00
  2120                    3.26   0.01  0.00  0.00  0.99  0.00  0.00  0.00  0.00  0.04
  2221                    1.07   0.01  0.00  0.00  0.00  0.00  0.00  0.99  0.00  0.23
  2322                    1.00   0.01  0.07  0.00  0.92  0.00  0.00  0.00  0.99  0.00
  2423                    2.09   0.08  0.26  0.00  0.57  0.09  0.00  0.00  0.95  0.00
  2524                    1.29   0.01  0.00  0.00  0.86  0.13  0.00  0.00  0.00  0.69
  2625                    1.75   0.01  0.24  0.00  0.75  0.00  0.00  0.00  0.94  0.00
  2726                    1.00   0.01  0.00  0.00  0.93  0.06  0.00  0.00  0.00  0.84
  27261                   1.00   1.00  0.00  0.00  0.00  0.00  0.00  0.00  0.00  0.00
  2823                    1.04   0.01  0.00  0.00  0.99  0.00  0.00  0.00  0.00  0.15
  2928                    1.00   0.01  0.41  0.00  0.58  0.00  0.00  0.00  0.00  0.99
  29281                   2.36   1.00  0.00  0.00  0.00  0.00  0.00  0.00  0.00  0.00
  2814                    1.00   1.00  0.00  0.00  0.00  0.00  0.00  0.00  0.00  0.00
  5192                    1.07   0.01  0.00  0.00  0.50  0.49  0.00  0.00  0.00  0.99
  4392                    1.74   0.64  0.00  0.00  0.00  0.00  0.00  0.36  0.00  0.00
  9293                    1.00   0.01  0.00  0.00  0.99  0.00  0.00  0.00  0.00  0.64
  9350                    1.00   0.01  0.00  0.00  0.86  0.13  0.00  0.00  0.00  0.00
  83822                   1.62   0.01  0.00  0.00  0.91  0.09  0.00  0.00  0.00  0.72
  
  
  *************************
  Conduit Surcharge Summary
  *************************
  
  ----------------------------------------------------------------------------
                                                           Hours        Hours 
                         --------- Hours Full --------   Above Full   Capacity
  Conduit                Both Ends  Upstream  Dnstream   Normal Flow   Limited
  ----------------------------------------------------------------------------
  5655                        0.01      0.01     43.68     45.40         0.01
  5857                       25.75     27.91     28.85     13.65        12.15
  3534                        0.01      7.68      0.01      5.59         0.01
  3635                        5.57      7.89      5.57      4.02         5.25
  3736                        6.66      9.35      6.66     13.02         6.66
  3837                        9.35     11.21      9.35     13.96         9.35
  3938                        6.78      6.78     10.10      0.01         0.01
  4039                        0.01      2.99      0.01      0.75         0.01
  4544                        0.01      1.23      0.01      0.01         0.01
  4645                        0.16      0.28      1.23      0.01         0.01
  4746                        0.13      1.16      0.28      0.01         0.10
  4847                        0.16      0.42      1.15      0.01         0.01
  7038                       11.21     11.21     13.11     16.54         0.01
  1110                        3.02     15.31      3.02      7.72         3.02
  1312                        9.74     13.33      9.75     12.82         9.72
  1615                        0.01     11.18      0.01      7.18         0.01
  7271                        9.42      9.42     12.65      0.01         0.01
  74730                       9.06      9.06     12.89      8.29         0.01
  74731                       9.17      9.23      9.38      3.10         2.98
  74732                       4.33      4.33      6.10      0.01         0.01
  7978                        0.01      4.61      0.01      4.33         0.01
  8180                        0.01      0.01      3.10     13.79         0.01
  8382                        1.97      1.97      2.31      0.01         0.01
  86850                       0.01      0.01      0.01      7.28         0.01
  86851                       0.01      0.01      0.01      7.28         0.01
  9190                        0.01      0.99      0.01      0.01         0.01
  2221                        0.01      1.93      0.01      2.04         0.01
  2726                        0.01      2.02      0.01      2.03         0.01
  2823                        0.01      0.01      0.81      0.01         0.01
  2928                        0.01      0.01    117.65      0.01         0.01
  83822                       0.01      0.01      1.57      0.01         0.01
  

  Analysis begun on:  Tue Jun 23 21:18:13 2026
  Analysis ended on:  Tue Jun 23 21:18:19 2026
  Total elapsed time: 00:00:06