
  EPA STORM WATER MANAGEMENT MODEL - VERSION 5.2 (Build 5.2.4)
  ------------------------------------------------------------

  Scenario Run :  100YR 
  WARNING 04: minimum elevation drop used for Conduit 109
  
  ****************
  Analysis Options
  ****************
  Flow Units ............... CFS
  Process Models:
    Rainfall/Runoff ........ YES
    RDII ................... NO
    Snowmelt ............... NO
    Groundwater ............ YES
    Flow Routing ........... YES
    Ponding Allowed ........ NO
    Water Quality .......... YES
  Infiltration Method ...... HORTON
  Flow Routing Method ...... DYNWAVE
  Surcharge Method ......... EXTRAN
  Starting Date ............ 04/25/2005 00:00:00
  Ending Date .............. 04/25/2005 04:00:00
  Antecedent Dry Days ...... 0.0
  Report Time Step ......... 00:01:00
  Wet Time Step ............ 00:01:00
  Dry Time Step ............ 00:15:00
  Routing Time Step ........ 10.00 sec
  Variable Time Step ....... NO
  Maximum Trials ........... 8
  Number of Threads ........ 1
  Head Tolerance ........... 0.001000 ft
  
  
  **************************        Volume         Depth
  Runoff Quantity Continuity     acre-feet        inches
  **************************     ---------       -------
  Total Precipitation ......        10.312         1.620
  Evaporation Loss .........         1.735         0.272
  Infiltration Loss ........         6.592         1.035
  Surface Runoff ...........         1.971         0.310
  Final Storage ............         0.021         0.003
  Continuity Error (%) .....        -0.065
  
  
  **************************           TSS             K             N
  Runoff Quality Continuity            lbs           lbs           lbs
  **************************    ----------    ----------    ----------
  Initial Buildup ..........         0.000         0.000         0.000
  Surface Buildup ..........         0.431         0.275         0.156
  Wet Deposition ...........         0.000         0.000         0.000
  Sweeping Removal .........         0.000         0.000         0.000
  Infiltration Loss ........         0.000         0.000         0.000
  BMP Removal ..............         0.013         0.000         0.000
  Surface Runoff ...........         0.054         0.000         0.000
  Remaining Buildup ........         0.364         0.275         0.156
  Continuity Error (%) .....         0.000         0.000         0.000
  
  
  **************************        Volume        Volume
  Flow Routing Continuity        acre-feet      10^6 gal
  **************************     ---------     ---------
  Dry Weather Inflow .......         0.000         0.000
  Wet Weather Inflow .......         1.971         0.642
  Groundwater Inflow .......         0.000         0.000
  RDII Inflow ..............         0.000         0.000
  External Inflow ..........         0.000         0.000
  External Outflow .........         0.697         0.227
  Flooding Loss ............         1.027         0.335
  Evaporation Loss .........         0.008         0.003
  Exfiltration Loss ........         0.000         0.000
  Initial Stored Volume ....         0.022         0.007
  Final Stored Volume ......         0.251         0.082
  Continuity Error (%) .....         0.450
  
  
  **************************           TSS             K             N
  Quality Routing Continuity           lbs           lbs           lbs
  **************************    ----------    ----------    ----------
  Dry Weather Inflow .......         0.000         0.000         0.000
  Wet Weather Inflow .......         0.054         0.000         0.000
  Groundwater Inflow .......         0.000         0.000         0.000
  RDII Inflow ..............         0.000         0.000         0.000
  External Inflow ..........         0.000         0.000         0.000
  External Outflow .........         0.019         0.000         0.000
  Flooding Loss ............         0.034         0.000         0.000
  Exfiltration Loss ........         0.000         0.000         0.000
  Mass Reacted .............         0.000         0.000         0.000
  Initial Stored Mass ......         0.000         0.000         0.000
  Final Stored Mass ........         0.000         0.000         0.000
  Continuity Error (%) .....        -0.258        -0.258         0.084
  
  
  *************************
  Highest Continuity Errors
  *************************
  Node STOR-12 (-93.52%)
  Node 56 (12.10%)
  Node JCT-14 (-11.48%)
  Node 42 (-3.12%)
  Node 111 (-1.91%)
  
  
  ********************************
  Highest Flow Instability Indexes
  ********************************
  Link OLET-13 (73)
  Link CDT-17 (52)
  Link 25 (49)
  Link 23 (32)
  Link 75 (14)
  
  
  *********************************
  Most Frequent Nonconverging Nodes
  *********************************
  Node 68 (35.07%)
  Node 69 (35.07%)
  Node 73 (35.07%)
  Node OFALL-10 (35.07%)
  Node 111 (12.08%)
  
  
  *************************
  Routing Time Step Summary
  *************************
  Minimum Time Step           :     9.00 sec
  Average Time Step           :    10.00 sec
  Maximum Time Step           :    10.00 sec
  % of Time in Steady State   :     0.00
  Average Iterations per Step :     4.67
  % of Steps Not Converging   :    35.07
  
  
  ***************************
  Subcatchment Runoff Summary
  ***************************
  
  ------------------------------------------------------------------------------------------------------------------------------
                            Total      Total      Total      Total     Imperv       Perv      Total       Total     Peak  Runoff
                           Precip      Runon       Evap      Infil     Runoff     Runoff     Runoff      Runoff   Runoff   Coeff
  Subcatchment                 in         in         in         in         in         in         in    10^6 gal      CFS
  ------------------------------------------------------------------------------------------------------------------------------
  100                        1.62       0.00       0.27       0.99       0.35       0.01       0.36        0.00     0.23   0.223
  101                        1.62       0.00       0.28       0.99       0.35       0.01       0.36        0.00     0.26   0.219
  102                        1.62       0.00       0.27       1.06       0.29       0.01       0.29        0.01     0.48   0.182
  103                        1.62       0.00       0.27       0.99       0.35       0.01       0.36        0.01     0.69   0.222
  105                        1.62       0.00       0.27       1.06       0.29       0.01       0.30        0.01     1.02   0.183
  106                        1.62       0.00       0.27       1.06       0.28       0.00       0.29        0.01     0.80   0.178
  110                        1.62       0.00       0.27       1.06       0.29       0.01       0.29        0.01     1.01   0.181
  112                        1.62       0.00       0.26       1.06       0.29       0.01       0.30        0.01     0.49   0.187
  113                        1.62       0.00       0.27       1.06       0.29       0.01       0.29        0.01     0.80   0.181
  114                        1.62       0.00       0.27       1.06       0.29       0.01       0.29        0.01     0.45   0.182
  115                        1.62       0.00       0.27       1.06       0.29       0.00       0.29        0.01     0.50   0.179
  116                        1.62       0.00       0.27       1.06       0.29       0.01       0.29        0.01     0.48   0.181
  117                        1.62       0.00       0.26       1.06       0.30       0.01       0.31        0.00     0.40   0.189
  118                        1.62       0.00       0.26       1.06       0.29       0.01       0.30        0.01     0.55   0.187
  119                        1.62       0.00       0.26       1.06       0.29       0.01       0.30        0.01     0.86   0.183
  120                        1.62       0.00       0.26       1.06       0.29       0.01       0.30        0.01     0.63   0.187
  121                        1.62       0.00       0.26       1.06       0.29       0.01       0.30        0.01     0.58   0.186
  122                        1.62       0.00       0.26       1.06       0.29       0.01       0.30        0.01     0.50   0.187
  123                        1.62       0.00       0.28       1.06       0.26       0.00       0.27        0.00     0.12   0.164
  124                        1.62       0.00       0.26       1.06       0.29       0.01       0.30        0.00     0.30   0.187
  125                        1.62       0.00       0.27       1.06       0.27       0.00       0.28        0.01     0.53   0.170
  126                        1.62       0.00       0.26       1.06       0.29       0.01       0.30        0.00     0.24   0.187
  127                        1.62       0.00       0.25       1.06       0.30       0.01       0.31        0.00     0.45   0.192
  128                        1.62       0.00       0.27       1.06       0.28       0.00       0.29        0.01     0.60   0.178
  129                        1.62       0.00       0.26       1.06       0.29       0.01       0.30        0.01     0.69   0.183
  130                        1.62       0.00       0.27       1.06       0.28       0.00       0.28        0.01     0.35   0.174
  131                        1.62       0.00       0.27       1.06       0.29       0.00       0.29        0.01     0.57   0.179
  132                        1.62       0.00       0.27       1.06       0.29       0.00       0.29        0.01     0.58   0.180
  133                        1.62       0.00       0.27       1.06       0.29       0.00       0.29        0.01     0.57   0.180
  134                        1.62       0.00       0.25       1.05       0.30       0.02       0.32        0.00     0.34   0.197
  135                        1.62       0.00       0.26       1.06       0.29       0.01       0.30        0.00     0.30   0.183
  136                        1.62       0.00       0.26       1.06       0.29       0.01       0.30        0.00     0.24   0.186
  137                        1.62       0.00       0.26       1.06       0.30       0.01       0.31        0.00     0.20   0.190
  138                        1.62       0.00       0.26       1.06       0.29       0.01       0.31        0.01     0.58   0.189
  139                        1.62       0.00       0.27       1.06       0.28       0.00       0.28        0.01     0.59   0.175
  140                        1.62       0.00       0.27       1.06       0.28       0.00       0.29        0.01     0.64   0.178
  141                        1.62       0.00       0.27       1.06       0.28       0.00       0.29        0.01     0.56   0.178
  142                        1.62       0.00       0.26       1.06       0.29       0.01       0.30        0.00     0.44   0.187
  143                        1.62       0.00       0.26       1.06       0.29       0.01       0.30        0.00     0.27   0.186
  144                        1.62       0.00       0.27       1.06       0.29       0.01       0.30        0.01     0.72   0.182
  145                        1.62       0.00       0.27       1.06       0.29       0.01       0.29        0.01     0.48   0.182
  146                        1.62       0.00       0.27       1.06       0.29       0.01       0.29        0.01     0.52   0.181
  147                        1.62       0.00       0.27       1.06       0.29       0.01       0.29        0.01     0.50   0.181
  148                        1.62       0.00       0.27       1.06       0.29       0.00       0.29        0.01     0.49   0.180
  149                        1.62       0.00       0.26       1.06       0.29       0.01       0.30        0.00     0.29   0.185
  150                        1.62       0.00       0.27       1.06       0.29       0.00       0.29        0.01     0.67   0.180
  151                        1.62       0.00       0.27       1.06       0.29       0.01       0.29        0.01     0.46   0.181
  152                        1.62       0.00       0.27       1.06       0.29       0.00       0.29        0.01     0.47   0.180
  153                        1.62       0.00       0.27       1.06       0.29       0.01       0.29        0.01     0.48   0.181
  154                        1.62       0.00       0.27       1.06       0.29       0.00       0.29        0.01     0.47   0.180
  155                        1.62       0.00       0.27       1.06       0.29       0.00       0.29        0.01     0.45   0.179
  156                        1.62       0.00       0.27       1.06       0.28       0.00       0.29        0.00     0.28   0.178
  157                        1.62       0.00       0.27       1.07       0.28       0.00       0.28        0.02     0.94   0.173
  158                        1.62       0.00       0.27       1.06       0.28       0.00       0.28        0.02     0.93   0.174
  159                        1.62       0.00       0.27       1.06       0.28       0.00       0.28        0.01     0.39   0.176
  160                        1.62       0.00       0.26       1.06       0.29       0.01       0.30        0.00     0.46   0.186
  161                        1.62       0.00       0.26       1.06       0.29       0.00       0.30        0.01     0.50   0.182
  162                        1.62       0.00       0.27       1.06       0.29       0.00       0.29        0.01     0.66   0.178
  163                        1.62       0.00       0.27       1.06       0.28       0.00       0.28        0.01     0.50   0.176
  164                        1.62       0.00       0.27       1.06       0.28       0.00       0.28        0.01     0.57   0.175
  165                        1.62       0.00       0.27       1.06       0.28       0.00       0.29        0.01     0.46   0.177
  166                        1.62       0.00       0.27       1.06       0.28       0.00       0.29        0.01     0.45   0.177
  167                        1.62       0.00       0.27       1.06       0.29       0.01       0.29        0.00     0.25   0.182
  168                        1.62       0.00       0.27       1.06       0.28       0.00       0.28        0.01     0.53   0.174
  169                        1.62       0.00       0.27       1.06       0.28       0.00       0.29        0.02     0.97   0.177
  170                        1.62       0.00       0.26       1.06       0.29       0.01       0.30        0.01     0.53   0.188
  171                        1.62       0.00       0.26       1.06       0.29       0.01       0.30        0.01     0.51   0.183
  172                        1.62       0.00       0.27       1.06       0.28       0.00       0.28        0.01     0.54   0.175
  174                        1.62       0.00       0.27       1.06       0.28       0.00       0.28        0.01     0.47   0.176
  175                        1.62       0.00       0.27       1.06       0.28       0.00       0.29        0.01     0.41   0.178
  176                        1.62       0.00       0.27       1.06       0.28       0.00       0.29        0.00     0.21   0.178
  177                        1.62       0.00       0.26       1.06       0.29       0.01       0.30        0.00     0.17   0.186
  178                        1.62       0.00       0.26       1.06       0.30       0.01       0.31        0.00     0.17   0.189
  179                        1.62       0.00       0.26       1.06       0.30       0.01       0.31        0.00     0.18   0.189
  87                         1.62       0.00       0.36       0.64       0.58       0.00       0.59        0.04     1.77   0.362
  88                         1.62       0.00       0.28       0.99       0.34       0.00       0.34        0.02     0.93   0.210
  89                         1.62       0.00       0.28       0.99       0.34       0.00       0.34        0.01     0.89   0.210
  90                         1.62       0.00       0.28       0.99       0.34       0.01       0.35        0.01     0.70   0.214
  91                         1.62       0.00       0.28       0.99       0.34       0.00       0.35        0.01     0.70   0.213
  92                         1.62       0.00       0.29       0.99       0.33       0.00       0.33        0.02     0.84   0.207
  93                         1.62       0.00       0.27       0.99       0.35       0.01       0.36        0.00     0.26   0.224
  94                         1.62       0.00       0.27       0.99       0.35       0.01       0.36        0.00     0.26   0.223
  95                         1.62       0.00       0.27       0.99       0.35       0.01       0.36        0.00     0.28   0.222
  96                         1.62       0.00       0.28       0.99       0.35       0.01       0.36        0.00     0.23   0.220
  97                         1.62       0.00       0.29       0.99       0.33       0.00       0.34        0.01     0.59   0.208
  98                         1.62       0.00       0.27       0.99       0.35       0.01       0.36        0.00     0.40   0.224
  99                         1.62       0.00       0.27       0.99       0.35       0.01       0.36        0.00     0.23   0.223
  
  
  ****************************
  Subcatchment Washoff Summary
  ****************************
  
  --------------------------------------------------------------
                                 TSS             K             N
  Subcatchment                   lbs           lbs           lbs
  --------------------------------------------------------------
  100                          0.000         0.000         0.000
  101                          0.000         0.000         0.000
  102                          0.000         0.000         0.000
  103                          0.000         0.000         0.000
  105                          0.000         0.000         0.000
  106                          0.000         0.000         0.000
  110                          0.000         0.000         0.000
  112                          0.000         0.000         0.000
  113                          0.000         0.000         0.000
  114                          0.000         0.000         0.000
  115                          0.000         0.000         0.000
  116                          0.000         0.000         0.000
  117                          0.000         0.000         0.000
  118                          0.000         0.000         0.000
  119                          0.000         0.000         0.000
  120                          0.000         0.000         0.000
  121                          0.000         0.000         0.000
  122                          0.000         0.000         0.000
  123                          0.000         0.000         0.000
  124                          0.000         0.000         0.000
  125                          0.000         0.000         0.000
  126                          0.000         0.000         0.000
  127                          0.000         0.000         0.000
  128                          0.000         0.000         0.000
  129                          0.000         0.000         0.000
  130                          0.000         0.000         0.000
  131                          0.000         0.000         0.000
  132                          0.000         0.000         0.000
  133                          0.000         0.000         0.000
  134                          0.000         0.000         0.000
  135                          0.000         0.000         0.000
  136                          0.000         0.000         0.000
  137                          0.000         0.000         0.000
  138                          0.000         0.000         0.000
  139                          0.000         0.000         0.000
  140                          0.000         0.000         0.000
  141                          0.000         0.000         0.000
  142                          0.000         0.000         0.000
  143                          0.000         0.000         0.000
  144                          0.000         0.000         0.000
  145                          0.000         0.000         0.000
  146                          0.000         0.000         0.000
  147                          0.000         0.000         0.000
  148                          0.000         0.000         0.000
  149                          0.000         0.000         0.000
  150                          0.000         0.000         0.000
  151                          0.000         0.000         0.000
  152                          0.000         0.000         0.000
  153                          0.000         0.000         0.000
  154                          0.000         0.000         0.000
  155                          0.000         0.000         0.000
  156                          0.000         0.000         0.000
  157                          0.054         0.000         0.000
  158                          0.000         0.000         0.000
  159                          0.000         0.000         0.000
  160                          0.000         0.000         0.000
  161                          0.000         0.000         0.000
  162                          0.000         0.000         0.000
  163                          0.000         0.000         0.000
  164                          0.000         0.000         0.000
  165                          0.000         0.000         0.000
  166                          0.000         0.000         0.000
  167                          0.000         0.000         0.000
  168                          0.000         0.000         0.000
  169                          0.000         0.000         0.000
  170                          0.000         0.000         0.000
  171                          0.000         0.000         0.000
  172                          0.000         0.000         0.000
  174                          0.000         0.000         0.000
  175                          0.000         0.000         0.000
  176                          0.000         0.000         0.000
  177                          0.000         0.000         0.000
  178                          0.000         0.000         0.000
  179                          0.000         0.000         0.000
  87                           0.000         0.000         0.000
  88                           0.000         0.000         0.000
  89                           0.000         0.000         0.000
  90                           0.000         0.000         0.000
  91                           0.000         0.000         0.000
  92                           0.000         0.000         0.000
  93                           0.000         0.000         0.000
  94                           0.000         0.000         0.000
  95                           0.000         0.000         0.000
  96                           0.000         0.000         0.000
  97                           0.000         0.000         0.000
  98                           0.000         0.000         0.000
  99                           0.000         0.000         0.000
  --------------------------------------------------------------
  System                       0.054         0.000         0.000
  
  
  ******************
  Node Depth Summary
  ******************
  
  ---------------------------------------------------------------------------------
                                 Average  Maximum  Maximum  Time of Max    Reported
                                   Depth    Depth      HGL   Occurrence   Max Depth
  Node                 Type         Feet     Feet     Feet  days hr:min        Feet
  ---------------------------------------------------------------------------------
  1                    JUNCTION     0.40     1.30  1553.55     0  01:19        1.30
  104                  JUNCTION     0.09     1.82  1558.32     0  01:30        1.81
  107                  JUNCTION     0.20     2.00  1560.00     0  01:22        2.00
  108                  JUNCTION     0.03     0.12  1555.62     0  01:25        0.12
  109                  JUNCTION     0.07     0.31  1548.81     0  01:25        0.31
  111                  JUNCTION     0.31     2.00  1548.00     0  01:25        2.00
  12                   JUNCTION     0.24     1.30  1552.80     0  01:22        1.30
  13                   JUNCTION     0.06     0.25  1545.75     0  01:30        0.25
  14                   JUNCTION     0.17     1.60  1547.10     0  01:22        1.60
  15                   JUNCTION     0.07     0.27  1543.27     0  01:30        0.27
  17                   JUNCTION     0.16     2.30  1551.80     0  01:22        2.30
  173                  JUNCTION     0.04     0.89  1556.39     0  01:25        0.87
  180                  JUNCTION     0.09     2.00  1555.75     0  01:24        2.00
  181                  JUNCTION     0.15     2.00  1552.00     0  01:21        2.00
  182                  JUNCTION     0.25     1.23  1546.23     0  01:25        1.23
  183                  JUNCTION     0.26     2.00  1555.75     0  01:21        2.00
  184                  JUNCTION     0.38     2.00  1539.00     0  01:21        2.00
  185                  JUNCTION     0.31     2.00  1540.50     0  01:21        2.00
  186                  JUNCTION     0.24     2.00  1542.00     0  01:22        2.00
  187                  JUNCTION     0.20     2.00  1543.00     0  01:24        2.00
  188                  JUNCTION     0.05     1.50  1547.50     0  01:25        1.40
  189                  JUNCTION     0.22     2.00  1543.50     0  01:20        2.00
  190                  JUNCTION     0.30     2.00  1533.00     0  01:21        2.00
  191                  JUNCTION     0.29     2.00  1534.00     0  01:21        2.00
  192                  JUNCTION     0.26     2.00  1535.00     0  01:21        2.00
  193                  JUNCTION     0.17     1.91  1535.91     0  01:25        1.88
  194                  JUNCTION     0.12     2.00  1536.50     0  01:24        2.00
  195                  JUNCTION     0.36     2.00  1533.25     0  01:19        2.00
  196                  JUNCTION     0.37     2.00  1532.75     0  01:20        2.00
  197                  JUNCTION     0.35     2.00  1532.25     0  01:20        2.00
  198                  JUNCTION     0.40     2.00  1529.75     0  01:20        2.00
  199                  JUNCTION     0.24     2.00  1530.75     0  01:22        2.00
  2                    JUNCTION     0.20     0.82  1551.82     0  01:25        0.82
  200                  JUNCTION     0.24     2.00  1530.50     0  01:22        2.00
  201                  JUNCTION     0.40     2.00  1527.00     0  01:22        2.00
  202                  JUNCTION     0.19     0.79  1525.04     0  01:30        0.79
  203                  JUNCTION     0.18     2.00  1530.25     0  01:25        2.00
  204                  JUNCTION     0.30     2.00  1530.50     0  01:22        2.00
  205                  JUNCTION     0.24     1.98  1529.23     0  01:25        1.97
  206                  JUNCTION     0.37     2.00  1529.75     0  01:21        2.00
  207                  JUNCTION     0.46     2.00  1528.25     0  01:20        2.00
  208                  JUNCTION     0.46     1.85  1527.85     0  01:20        1.82
  3                    JUNCTION     0.17     0.48  1548.98     0  01:25        0.48
  41                   JUNCTION     0.12     1.30  1552.05     0  01:25        1.30
  43                   JUNCTION     0.06     0.35  1547.85     0  01:25        0.35
  44                   JUNCTION     0.39     1.20  1545.70     0  01:19        1.20
  45                   JUNCTION     0.20     1.33  1545.08     0  01:25        1.30
  46                   JUNCTION     0.09     0.90  1545.40     0  01:30        0.90
  47                   JUNCTION     0.26     1.50  1551.00     0  01:21        1.50
  48                   JUNCTION     0.15     1.30  1558.30     0  01:21        1.30
  49                   JUNCTION     0.52     2.00  1540.00     0  01:19        2.00
  5                    JUNCTION     0.38     1.30  1551.30     0  01:22        1.30
  50                   JUNCTION     0.50     2.10  1537.85     0  01:21        2.10
  51                   JUNCTION     0.69     2.20  1535.20     0  01:22        2.20
  52                   JUNCTION     0.13     0.85  1533.35     0  01:19        0.85
  53                   JUNCTION     0.46     1.80  1536.30     0  01:21        1.80
  54                   JUNCTION     0.45     2.30  1538.05     0  01:22        2.30
  55                   JUNCTION     0.36     1.80  1539.05     0  01:19        1.80
  57                   JUNCTION     0.39     2.30  1531.30     0  01:21        2.30
  58                   JUNCTION     0.41     1.80  1528.05     0  01:21        1.80
  59                   JUNCTION     0.33     1.80  1531.05     0  01:20        1.80
  60                   JUNCTION     0.13     1.80  1525.80     0  01:17        1.23
  62                   JUNCTION     0.36     2.00  1528.25     0  01:22        2.00
  63                   JUNCTION     0.09     0.31  1523.31     0  01:23        0.31
  65                   JUNCTION     0.50     1.80  1527.80     0  01:19        1.80
  66                   JUNCTION     0.43     1.80  1527.00     0  01:24        1.80
  67                   JUNCTION     0.47     1.80  1527.05     0  01:19        1.80
  71                   JUNCTION     0.08     0.30  1525.55     0  01:30        0.30
  72                   JUNCTION     0.06     0.30  1522.80     0  01:25        0.30
  74                   JUNCTION     0.22     1.80  1542.30     0  01:19        1.80
  75                   JUNCTION     0.10     0.27  1543.27     0  01:25        0.26
  77                   JUNCTION     0.12     0.32  1545.32     0  01:30        0.31
  78                   JUNCTION     0.07     0.12  1525.12     0  03:12        0.12
  79                   JUNCTION     0.11     0.20  1515.20     0  02:10        0.20
  80                   JUNCTION     0.00     0.00  1511.00     0  00:00        0.00
  81                   JUNCTION     0.12     0.30  1500.30     0  01:30        0.30
  82                   JUNCTION     0.57     2.00  1555.25     0  01:19        2.00
  83                   JUNCTION     0.57     2.00  1555.75     0  01:18        2.00
  84                   JUNCTION     0.57     2.00  1556.00     0  01:18        2.00
  85                   JUNCTION     0.17     2.00  1550.00     0  01:22        2.00
  86                   JUNCTION     0.01     0.05  1555.30     0  01:25        0.05
  JCT-10               JUNCTION     0.01     0.47  1513.47     0  00:00        0.23
  JCT-14               JUNCTION     0.12     6.00  1511.00     0  00:00        1.21
  68                   OUTFALL      0.19     0.45  1524.20     0  01:19        0.45
  69                   OUTFALL      0.08     0.30  1524.05     0  01:30        0.30
  73                   OUTFALL      0.12     0.30  1498.30     0  01:30        0.30
  OFALL-10             OUTFALL      0.11     1.00  1500.00     0  00:00        1.00
  DIV-10               DIVIDER      0.11     0.23  1510.23     0  01:43        0.23
  42                   STORAGE      0.65     2.50  1547.50     0  01:24        2.50
  56                   STORAGE      1.48     2.50  1527.50     0  01:55        2.50
  61                   STORAGE      0.23     0.56  1517.56     0  02:09        0.56
  STOR-10              STORAGE      1.18     1.56  1541.56     0  01:31        1.56
  STOR-12              STORAGE      0.01     1.82  1508.82     0  00:00        1.12
  
  
  *******************
  Node Inflow Summary
  *******************
  
  -------------------------------------------------------------------------------------------------
                                  Maximum  Maximum                  Lateral       Total        Flow
                                  Lateral    Total  Time of Max      Inflow      Inflow     Balance
                                   Inflow   Inflow   Occurrence      Volume      Volume       Error
  Node                 Type           CFS      CFS  days hr:min    10^6 gal    10^6 gal     Percent
  -------------------------------------------------------------------------------------------------
  1                    JUNCTION      1.13     1.70     0  01:30      0.0179      0.0419      -0.033
  104                  JUNCTION      0.80     0.80     0  01:30      0.0123      0.0123       0.032
  107                  JUNCTION      1.01     1.01     0  01:25      0.0135      0.0135       0.010
  108                  JUNCTION      0.49     0.49     0  01:25     0.00525     0.00525      -0.033
  109                  JUNCTION      0.80     1.29     0  01:25       0.011      0.0162       0.051
  111                  JUNCTION      0.00     1.27     0  01:25           0      0.0166      -1.870
  12                   JUNCTION      0.93     0.93     0  01:30      0.0157      0.0157      -0.008
  13                   JUNCTION      0.59     0.59     0  01:30      0.0102      0.0102       0.009
  14                   JUNCTION      0.23     0.90     0  01:25     0.00249      0.0152      -0.039
  15                   JUNCTION      0.23     1.60     0  01:30     0.00249      0.0277      -0.001
  17                   JUNCTION      0.23     0.92     0  01:25      0.0028      0.0107      -0.017
  173                  JUNCTION      0.40     0.40     0  01:25     0.00402     0.00402       0.010
  180                  JUNCTION      0.55     0.95     0  01:25     0.00574     0.00975      -0.023
  181                  JUNCTION      0.58     1.44     0  01:25      0.0064      0.0161      -0.004
  182                  JUNCTION      0.50     1.36     0  01:25     0.00534      0.0196      -0.029
  183                  JUNCTION      0.98     1.68     0  01:25       0.014      0.0299      -0.005
  184                  JUNCTION      0.57     1.44     0  01:25      0.0082      0.0293       0.016
  185                  JUNCTION      0.58     1.20     0  01:25     0.00806      0.0228       0.001
  186                  JUNCTION      0.57     1.08     0  01:25     0.00837      0.0173       0.054
  187                  JUNCTION      0.60     0.60     0  01:30      0.0092      0.0092      -0.048
  188                  JUNCTION      0.69     0.69     0  01:25     0.00676     0.00676      -0.053
  189                  JUNCTION      0.69     1.38     0  01:25     0.00855      0.0153       0.027
  190                  JUNCTION      0.49     1.00     0  01:25     0.00709      0.0215      -0.018
  191                  JUNCTION      0.50     1.01     0  01:25     0.00694       0.018      -0.015
  192                  JUNCTION      0.52     1.00     0  01:25     0.00698      0.0133      -0.051
  193                  JUNCTION      0.48     0.48     0  01:25     0.00634     0.00634      -0.073
  194                  JUNCTION      0.72     0.72     0  01:25     0.00916     0.00916      -0.023
  195                  JUNCTION      0.67     1.29     0  01:25     0.00934      0.0183       0.024
  196                  JUNCTION      0.46     0.82     0  01:25      0.0062      0.0178      -0.002
  197                  JUNCTION      0.47     0.83     0  01:25     0.00668      0.0206      -0.019
  198                  JUNCTION      0.64     1.45     0  01:25     0.00835      0.0336      -0.023
  199                  JUNCTION      0.46     0.46     0  01:30      0.0072      0.0072       0.010
  2                    JUNCTION      0.26     1.57     0  01:23     0.00288      0.0504      -0.002
  200                  JUNCTION      0.45     0.68     0  01:30      0.0071      0.0131      -0.026
  201                  JUNCTION      0.47     1.34     0  01:30     0.00766      0.0348      -0.006
  202                  JUNCTION      0.41     1.53     0  01:24     0.00639      0.0401       0.001
  203                  JUNCTION      0.57     0.57     0  01:30     0.00954     0.00954       0.076
  204                  JUNCTION      0.93     0.93     0  01:30      0.0157      0.0157       0.001
  205                  JUNCTION      0.25     0.77     0  01:25     0.00338      0.0128       0.044
  206                  JUNCTION      0.94     0.94     0  01:30      0.0161      0.0161      -0.029
  207                  JUNCTION      0.46     0.95     0  01:25     0.00482      0.0179      -0.055
  208                  JUNCTION      0.00     0.63     0  02:11           0       0.024       0.010
  3                    JUNCTION      0.26     2.54     0  01:25     0.00276      0.0844       0.008
  41                   JUNCTION      1.02     1.81     0  01:25      0.0128      0.0251      -0.134
  43                   JUNCTION      0.86     0.86     0  01:25      0.0106      0.0106       0.003
  44                   JUNCTION      0.63     2.84     0  01:25     0.00663      0.0368      -0.075
  45                   JUNCTION      0.39     2.13     0  01:24     0.00593       0.061      -0.008
  46                   JUNCTION      0.35     0.35     0  01:30     0.00602     0.00602       0.059
  47                   JUNCTION      0.53     1.49     0  01:30      0.0104      0.0356      -0.022
  48                   JUNCTION      0.45     1.06     0  01:25     0.00595      0.0179      -0.014
  49                   JUNCTION      0.79     2.81     0  01:25     0.00788      0.0689      -0.011
  5                    JUNCTION      1.77     1.77     0  01:30      0.0406      0.0406       0.017
  50                   JUNCTION      0.64     1.97     0  01:25     0.00677      0.0606      -0.033
  51                   JUNCTION      0.56     3.57     0  01:21      0.0085       0.112      -0.021
  52                   JUNCTION      0.00     3.64     0  01:20           0       0.106       0.342
  53                   JUNCTION      0.64     2.00     0  01:30     0.00985      0.0522       0.015
  54                   JUNCTION      0.24     0.94     0  01:25     0.00267      0.0256      -0.017
  55                   JUNCTION      0.59     1.17     0  01:30     0.00985      0.0233       0.013
  57                   JUNCTION      0.29     0.95     0  01:25     0.00333      0.0226       0.006
  58                   JUNCTION      0.63     2.31     0  01:25      0.0085      0.0602      -0.106
  59                   JUNCTION      0.65     1.21     0  01:25     0.00823      0.0273      -0.006
  60                   JUNCTION      0.72    13.41     0  01:17     0.00903      0.0662      -1.214
  62                   JUNCTION      0.54     1.84     0  01:30     0.00902      0.0343      -0.050
  63                   JUNCTION      0.21     1.73     0  01:25     0.00325      0.0433      -0.020
  65                   JUNCTION      0.39     0.91     0  01:30     0.00619      0.0199       0.027
  66                   JUNCTION      0.50     1.15     0  01:25     0.00609      0.0401      -0.019
  67                   JUNCTION      1.16     1.16     0  01:30      0.0179      0.0179      -0.015
  71                   JUNCTION      0.53     0.53     0  01:30     0.00916     0.00916       0.007
  72                   JUNCTION      1.98     1.98     0  01:25      0.0269      0.0269      -0.008
  74                   JUNCTION      0.27     0.83     0  01:25     0.00293      0.0149      -0.036
  75                   JUNCTION      0.00     2.54     0  01:25           0      0.0844      -0.007
  77                   JUNCTION      0.00     3.79     0  01:24           0       0.123      -0.446
  78                   JUNCTION      0.00     0.64     0  01:55           0      0.0379       1.106
  79                   JUNCTION      0.00     1.91     0  02:10           0      0.0966       0.165
  80                   JUNCTION      0.00     0.00     0  00:00           0           0       0.000 gal
  81                   JUNCTION      0.00     4.71     0  01:30           0       0.156       0.143
  82                   JUNCTION      0.95     1.31     0  01:25      0.0138      0.0298      -0.015
  83                   JUNCTION      0.70     0.96     0  01:30      0.0109       0.022       0.002
  84                   JUNCTION      1.28     1.28     0  01:30      0.0214      0.0214       0.009
  85                   JUNCTION      0.40     1.08     0  01:25     0.00431      0.0144      -0.047
  86                   JUNCTION      0.69     0.69     0  01:25      0.0079      0.0079      -0.002
  JCT-10               JUNCTION      0.00     0.00     0  00:00           0           0    -100.000
  JCT-14               JUNCTION      0.00    13.49     0  00:00           0      0.0202     -10.301
  68                   OUTFALL       0.00     1.10     0  01:27           0        0.04       0.000
  69                   OUTFALL       0.00     0.52     0  01:30           0     0.00916       0.000
  73                   OUTFALL       0.00     4.70     0  01:30           0       0.156       0.000
  OFALL-10             OUTFALL       0.00     6.46     0  00:01           0      0.0217       0.000
  DIV-10               DIVIDER       0.00     3.14     0  01:43           0        0.14       0.233
  42                   STORAGE       0.00    38.80     0  01:25           0       0.152      -3.023
  56                   STORAGE       0.00     6.46     0  01:30           0       0.228      13.767
  61                   STORAGE       0.00     3.75     0  01:21           0       0.103       0.930
  STOR-10              STORAGE       0.00     4.12     0  01:25           0       0.113       0.730
  STOR-12              STORAGE       0.00     1.70     0  00:00           0      0.0104     -48.326
  
  
  **********************
  Node Surcharge Summary
  **********************
  
  Surcharging occurs when water rises above the top of the highest conduit.
  ---------------------------------------------------------------------
                                               Max. Height   Min. Depth
                                   Hours       Above Crown    Below Rim
  Node                 Type      Surcharged           Feet         Feet
  ---------------------------------------------------------------------
  1                    JUNCTION        1.16          0.850        0.000
  104                  JUNCTION        0.14          1.665        0.185
  107                  JUNCTION        0.38          1.850        0.000
  111                  JUNCTION        0.81          1.400        0.000
  12                   JUNCTION        0.56          0.850        0.000
  14                   JUNCTION        0.30          1.150        0.000
  17                   JUNCTION        0.25          2.100        0.000
  173                  JUNCTION        0.08          0.738        1.112
  180                  JUNCTION        0.17          1.850        0.000
  181                  JUNCTION        0.25          1.850        0.000
  182                  JUNCTION        0.90          0.633        0.767
  183                  JUNCTION        0.49          1.850        0.000
  184                  JUNCTION        0.72          1.550        0.000
  185                  JUNCTION        0.57          1.550        0.000
  186                  JUNCTION        0.52          1.850        0.000
  187                  JUNCTION        0.42          1.850        0.000
  188                  JUNCTION        0.09          1.355        0.495
  189                  JUNCTION        0.42          1.850        0.000
  190                  JUNCTION        0.59          1.850        0.000
  191                  JUNCTION        0.56          1.850        0.000
  192                  JUNCTION        0.52          1.850        0.000
  193                  JUNCTION        0.47          1.761        0.089
  194                  JUNCTION        0.25          1.850        0.000
  195                  JUNCTION        0.71          1.850        0.000
  196                  JUNCTION        0.79          1.850        0.000
  197                  JUNCTION        0.76          1.850        0.000
  198                  JUNCTION        0.72          1.550        0.000
  199                  JUNCTION        0.51          1.850        0.000
  2                    JUNCTION        0.32          0.224        0.376
  200                  JUNCTION        0.52          1.850        0.000
  201                  JUNCTION        0.85          1.550        0.000
  202                  JUNCTION        0.29          0.188        1.212
  203                  JUNCTION        0.48          1.850        0.000
  204                  JUNCTION        0.69          1.850        0.000
  205                  JUNCTION        0.53          1.533        0.017
  206                  JUNCTION        0.92          1.850        0.000
  207                  JUNCTION        1.06          1.850        0.000
  208                  JUNCTION        1.16          1.697        0.153
  41                   JUNCTION        0.17          0.850        0.000
  44                   JUNCTION        1.19          0.600        0.000
  45                   JUNCTION        0.31          0.731        0.169
  46                   JUNCTION        0.17          0.453        0.097
  47                   JUNCTION        0.52          1.050        0.000
  48                   JUNCTION        0.40          1.150        0.000
  49                   JUNCTION        0.91          1.400        0.000
  5                    JUNCTION        1.00          0.850        0.000
  50                   JUNCTION        0.94          1.500        0.000
  51                   JUNCTION        1.25          1.450        0.000
  52                   JUNCTION        0.02          0.096        1.054
  53                   JUNCTION        0.96          1.200        0.000
  54                   JUNCTION        0.85          1.850        0.000
  55                   JUNCTION        0.84          1.650        0.000
  57                   JUNCTION        0.61          1.850        0.000
  58                   JUNCTION        0.73          1.200        0.000
  59                   JUNCTION        0.65          1.350        0.000
  60                   JUNCTION        0.14          1.200        0.000
  62                   JUNCTION        0.63          1.550        0.000
  65                   JUNCTION        1.79          1.650        0.000
  66                   JUNCTION        1.01          1.350        0.000
  67                   JUNCTION        1.03          1.350        0.000
  74                   JUNCTION        0.47          1.650        0.000
  80                   JUNCTION        4.00          0.000        2.000
  82                   JUNCTION        1.32          1.850        0.000
  83                   JUNCTION        1.26          1.850        0.000
  84                   JUNCTION        1.23          1.850        0.000
  85                   JUNCTION        0.32          1.850        0.000
  JCT-14               JUNCTION        0.03          5.000        0.000
  
  
  *********************
  Node Flooding Summary
  *********************
  
  Flooding refers to all water that overflows a node, whether it ponds or not.
  --------------------------------------------------------------------------
                                                             Total   Maximum
                                 Maximum   Time of Max       Flood    Ponded
                        Hours       Rate    Occurrence      Volume     Depth
  Node                 Flooded       CFS   days hr:min    10^6 gal      Feet
  --------------------------------------------------------------------------
  1                       0.79      0.91      0  01:30       0.008     0.300
  107                     0.24      0.39      0  01:25       0.002     0.000
  111                     0.03      0.07      0  01:25       0.000     0.000
  12                      0.36      0.46      0  01:30       0.002     0.300
  14                      0.16      0.10      0  01:22       0.000     0.300
  17                      0.15      0.24      0  01:25       0.001     0.300
  180                     0.04      0.09      0  01:25       0.000     0.000
  181                     0.19      0.57      0  01:25       0.002     0.000
  183                     0.39      0.72      0  01:25       0.005     0.000
  184                     0.50      0.74      0  01:25       0.006     0.000
  185                     0.33      0.33      0  01:25       0.002     0.000
  186                     0.32      0.46      0  01:25       0.003     0.000
  187                     0.14      0.09      0  01:30       0.000     0.000
  189                     0.30      0.82      0  01:25       0.003     0.000
  190                     0.45      0.34      0  01:25       0.002     0.000
  191                     0.44      0.50      0  01:25       0.004     0.000
  192                     0.29      0.49      0  01:25       0.002     0.000
  194                     0.11      0.09      0  01:25       0.000     0.000
  195                     0.57      0.93      0  01:25       0.007     0.000
  196                     0.58      0.46      0  01:25       0.004     0.000
  197                     0.38      0.27      0  01:25       0.002     0.000
  198                     0.50      0.52      0  01:25       0.004     0.000
  199                     0.30      0.23      0  01:30       0.001     0.000
  200                     0.25      0.14      0  01:30       0.001     0.000
  201                     0.32      0.25      0  01:30       0.001     0.000
  203                     0.11      0.05      0  01:30       0.000     0.000
  204                     0.39      0.45      0  01:30       0.003     0.000
  206                     0.44      0.49      0  01:30       0.003     0.000
  207                     0.41      0.36      0  01:25       0.002     0.000
  41                      0.14      0.41      0  01:25       0.001     0.300
  44                      0.86      2.54      0  01:25       0.020     0.000
  47                      0.45      0.47      0  01:30       0.004     0.300
  48                      0.31      0.36      0  01:25       0.002     0.300
  49                      0.77      1.49      0  01:25       0.015     0.300
  5                       0.78      0.99      0  01:30       0.009     0.300
  50                      0.24      0.35      0  01:25       0.001     0.300
  51                      0.71      0.67      0  01:29       0.007     0.300
  53                      0.66      0.76      0  01:30       0.008     0.300
  54                      0.16      0.08      0  01:25       0.000     0.300
  55                      0.61      0.67      0  01:30       0.006     0.300
  57                      0.37      0.19      0  01:25       0.001     0.300
  58                      0.56      0.55      0  01:30       0.004     0.300
  59                      0.36      0.39      0  01:25       0.002     0.300
  60                      0.01      7.22      0  01:17       0.001     0.300
  62                      0.46      0.97      0  01:30       0.007     0.000
  65                      0.86      0.91      0  01:30       0.012     0.300
  66                      0.08      0.05      0  01:25       0.000     0.300
  67                      0.57      1.01      0  01:29       0.007     0.300
  74                      0.34      0.25      0  01:25       0.001     0.300
  82                      0.73      0.74      0  01:25       0.006     0.000
  83                      0.91      0.60      0  01:30       0.006     0.000
  84                      0.97      1.02      0  01:30       0.010     0.000
  85                      0.22      0.41      0  01:25       0.002     0.000
  JCT-14                  0.01      7.03      0  00:00       0.001     0.000
  42                      0.08     17.07      0  01:25       0.033     0.000
  56                      1.28      5.57      0  01:57       0.100     0.000
  
  
  **********************
  Storage Volume Summary
  **********************
  
  ------------------------------------------------------------------------------------------------
                         Average    Avg   Evap  Exfil     Maximum    Max    Time of Max    Maximum
                          Volume   Pcnt   Pcnt   Pcnt      Volume   Pcnt     Occurrence    Outflow
  Storage Unit          1000 ftł   Full   Loss   Loss    1000 ftł   Full    days hr:min        CFS
  ------------------------------------------------------------------------------------------------
  42                       0.133   20.8    0.0    0.0       0.640  100.0       0  01:24       4.17
  56                       5.370   59.0    0.0    0.0       9.100  100.0       0  01:55       0.65
  61                       0.850    9.3    0.0    0.0       2.047   22.5       0  02:09      12.38
  STOR-10                  0.204    7.5    0.0    0.0       0.322   11.9       0  01:31      36.21
  STOR-12                  0.000    0.0    0.0    0.0       0.000    0.0       0  00:00      13.49
  
  
  ***********************
  Outfall Loading Summary
  ***********************
  
  -----------------------------------------------------------------------------------------------------
                         Flow       Avg       Max       Total         Total         Total         Total
                         Freq      Flow      Flow      Volume           TSS             K             N
  Outfall Node           Pcnt       CFS       CFS    10^6 gal           lbs           lbs           lbs
  -----------------------------------------------------------------------------------------------------
  68                    65.76      0.56      1.10       0.040         0.019         0.000         0.000
  69                    60.35      0.14      0.52       0.009         0.000         0.000         0.000
  73                    71.74      2.02      4.70       0.156         0.000         0.000         0.000
  OFALL-10              84.86      0.24      6.46       0.022         0.000         0.000         0.000
  -----------------------------------------------------------------------------------------------------
  System                70.68      2.96      6.58       0.227         0.019         0.000         0.000
  
  
  ********************
  Link Flow Summary
  ********************
  
  -----------------------------------------------------------------------------
                                 Maximum  Time of Max   Maximum    Max/    Max/
                                  |Flow|   Occurrence   |Veloc|    Full    Full
  Link                 Type          CFS  days hr:min    ft/sec    Flow   Depth
  -----------------------------------------------------------------------------
  1                    CONDUIT      0.88     0  01:55      5.54    1.33    1.00
  100                  CONDUIT      0.92     0  01:50      5.79    1.06    1.00
  101                  CONDUIT      1.16     0  01:23      7.31    1.72    1.00
  102                  CONDUIT      1.52     0  01:25      6.93    0.81    0.76
  103                  CONDUIT      0.54     0  01:25      3.59    1.00    1.00
  104                  CONDUIT      0.53     0  01:31      3.53    1.04    1.00
  105                  CONDUIT      0.77     0  01:25      4.83    0.99    1.00
  106                  CONDUIT      0.48     0  01:25      3.21    1.00    1.00
  107                  CONDUIT      0.45     0  01:24      2.99    1.06    1.00
  108                  CONDUIT      0.59     0  01:44      3.93    1.34    1.00
  109                  CONDUIT      0.34     0  02:11      2.24   14.79    1.00
  110                  CONDUIT      0.63     0  02:11      4.20    1.27    1.00
  12                   CONDUIT      1.42     0  01:32      9.24    0.91    1.00
  13                   CONDUIT      0.85     0  01:25      5.69    0.90    0.89
  14                   CONDUIT      0.48     0  01:21      3.08    1.52    1.00
  15                   CONDUIT      0.35     0  01:30      2.21    0.69    1.00
  16                   CONDUIT      1.11     0  01:48      7.03    1.10    1.00
  18                   CONDUIT      2.05     0  01:24      7.40    0.95    1.00
  19                   CONDUIT      1.66     0  01:19      5.95    1.23    1.00
  2                    CONDUIT      1.54     0  01:23      6.18    1.04    0.90
  20                   CONDUIT      1.76     0  01:20      6.22    1.07    1.00
  21                   CONDUIT      0.60     0  01:19      4.03    1.22    1.00
  22                   CONDUIT      1.57     0  01:21      5.56    1.09    1.00
  23                   CONDUIT      3.64     0  01:20      8.84    1.57    1.00
  24                   CONDUIT      0.86     0  01:24      5.40    1.18    1.00
  25                   CONDUIT      4.66     0  01:20     21.54    0.51    0.69
  26                   CONDUIT      0.76     0  01:21      4.78    1.09    1.00
  28                   CONDUIT      2.14     0  01:26      7.63    1.25    1.00
  29                   CONDUIT     12.35     0  01:17    >50.00    2.55    0.68
  36                   CONDUIT      0.52     0  01:30      4.67    0.78    0.67
  37                   CONDUIT      0.37     0  01:54      2.35    2.54    1.00
  38                   CONDUIT      1.10     0  01:27      6.93    1.39    1.00
  4                    CONDUIT      0.52     0  01:22      3.29    1.59    1.00
  47                   CONDUIT      3.70     0  01:30      2.60    0.12    0.66
  49                   CONDUIT      0.64     0  03:12      1.23    0.02    0.34
  5                    CONDUIT      0.81     0  01:43      5.10    1.29    1.00
  56                   CONDUIT      4.70     0  01:30      4.34    0.11    0.30
  57                   CONDUIT      2.54     0  01:25     13.85    0.60    0.62
  59                   CONDUIT      1.74     0  01:25     15.28    0.41    0.43
  6                    CONDUIT      0.59     0  01:30      6.15    0.58    0.58
  60                   CONDUIT      1.91     0  02:10      2.74    0.06    0.21
  61                   CONDUIT      2.90     0  01:43      3.45    0.07    0.26
  62                   CONDUIT      1.98     0  01:25     18.27    0.74    0.65
  63                   CONDUIT      2.54     0  01:25      0.94    0.09    0.63
  64                   CONDUIT      1.60     0  01:30      7.27    0.43    0.73
  65                   CONDUIT      0.68     0  01:25      4.54    1.10    1.00
  66                   CONDUIT      0.69     0  01:22      4.62    1.11    1.00
  67                   CONDUIT      0.69     0  01:25      2.70    0.12    0.64
  68                   CONDUIT      0.28     0  02:16      1.88    1.11    1.00
  69                   CONDUIT      0.42     0  01:18      2.82    1.18    1.00
  7                    CONDUIT      0.83     0  01:30      6.11    1.08    0.80
  70                   CONDUIT      0.67     0  01:18      4.45    1.52    1.00
  71                   CONDUIT      0.80     0  01:30      5.36    1.04    1.00
  72                   CONDUIT      0.61     0  01:24      4.09    1.30    1.00
  73                   CONDUIT      0.49     0  01:25      3.97    0.57    0.91
  74                   CONDUIT      1.27     0  01:25      6.42    0.53    0.76
  75                   CONDUIT      1.27     0  01:26      4.49    0.76    1.00
  76                   CONDUIT      0.40     0  01:25      2.69    0.60    1.00
  77                   CONDUIT      0.85     0  01:26      5.68    1.00    1.00
  78                   CONDUIT      0.87     0  01:33      5.83    1.09    1.00
  79                   CONDUIT      1.36     0  01:25      4.82    1.03    1.00
  80                   CONDUIT      0.70     0  01:23      4.68    0.89    1.00
  81                   CONDUIT      1.06     0  01:21      7.08    1.17    1.00
  82                   CONDUIT      0.51     0  01:27      3.39    1.00    1.00
  83                   CONDUIT      0.62     0  01:24      4.15    1.00    1.00
  84                   CONDUIT      0.87     0  01:25      5.48    1.00    1.00
  85                   CONDUIT      0.76     0  01:51      5.08    0.96    1.00
  86                   CONDUIT      0.69     0  01:25      4.59    0.94    1.00
  87                   CONDUIT      0.58     0  01:22      3.86    1.00    1.00
  88                   CONDUIT      0.48     0  01:25      3.21    0.95    1.00
  89                   CONDUIT      0.51     0  01:24      3.39    1.00    1.00
  90                   CONDUIT      0.55     0  01:20      3.64    1.07    1.00
  91                   CONDUIT      0.74     0  01:20      4.91    1.02    1.00
  92                   CONDUIT      0.62     0  01:26      4.15    1.00    1.00
  93                   CONDUIT      0.55     0  01:19      3.64    1.52    1.00
  94                   CONDUIT      0.70     0  01:20      4.69    1.38    1.00
  95                   CONDUIT      0.81     0  01:23      5.50    0.93    1.00
  96                   CONDUIT      1.02     0  01:20      6.44    1.18    1.00
  97                   CONDUIT      0.56     0  01:23      3.71    1.10    1.00
  98                   CONDUIT      0.40     0  01:19      2.67    1.11    1.00
  99                   CONDUIT      0.27     0  01:40      1.82    1.13    1.00
  CDT-13               CONDUIT      0.23     0  01:43      4.67    0.06    0.50
  CDT-15               CONDUIT      1.70     0  00:00      4.01    0.34    0.73
  CDT-17               CONDUIT      6.46     0  00:01      8.29    1.27    0.98
  PUMP-13              PUMP        36.21     0  01:25              0.36
  31                   ORIFICE      1.91     0  02:10                          
  8                    ORIFICE      3.79     0  01:24                          
  WEIR-11              WEIR         0.00     0  00:00                      0.00
  OLET-11              DUMMY        0.64     0  01:55
  OLET-13              DUMMY       13.49     0  00:00
  
  
  ***************************
  Flow Classification Summary
  ***************************
  
  -------------------------------------------------------------------------------------
                      Adjusted    ---------- Fraction of Time in Flow Class ---------- 
                       /Actual         Up    Down  Sub   Sup   Up    Down  Norm  Inlet 
  Conduit               Length    Dry  Dry   Dry   Crit  Crit  Crit  Crit  Ltd   Ctrl  
  -------------------------------------------------------------------------------------
  1                       1.00   0.25  0.00  0.00  0.20  0.55  0.00  0.00  0.27  0.00
  100                     1.00   0.25  0.00  0.00  0.23  0.52  0.00  0.00  0.56  0.00
  101                     1.00   0.25  0.00  0.00  0.19  0.56  0.00  0.00  0.14  0.00
  102                     1.10   0.25  0.00  0.00  0.01  0.73  0.00  0.00  0.00  0.00
  103                     1.00   0.25  0.00  0.00  0.38  0.36  0.00  0.00  0.57  0.00
  104                     1.00   0.25  0.00  0.00  0.10  0.65  0.00  0.00  0.42  0.00
  105                     1.00   0.25  0.00  0.00  0.28  0.46  0.00  0.00  0.58  0.00
  106                     1.00   0.25  0.00  0.00  0.15  0.60  0.00  0.00  0.49  0.00
  107                     1.00   0.25  0.01  0.00  0.40  0.34  0.00  0.00  0.46  0.00
  108                     1.12   0.25  0.00  0.00  0.20  0.55  0.00  0.00  0.41  0.00
  109                     1.00   0.25  0.00  0.00  0.61  0.14  0.00  0.00  0.00  0.00
  110                     1.00   0.25  0.02  0.00  0.05  0.68  0.00  0.00  0.29  0.00
  12                      1.36   0.25  0.01  0.00  0.38  0.36  0.00  0.00  0.63  0.00
  13                      1.00   0.25  0.00  0.00  0.65  0.10  0.00  0.00  0.72  0.00
  14                      1.00   0.25  0.00  0.00  0.72  0.03  0.00  0.00  0.21  0.00
  15                      1.00   0.25  0.00  0.00  0.75  0.00  0.00  0.00  0.68  0.00
  16                      1.00   0.25  0.00  0.00  0.21  0.54  0.00  0.00  0.59  0.00
  18                      1.00   0.25  0.00  0.00  0.12  0.63  0.00  0.00  0.61  0.00
  19                      1.00   0.25  0.00  0.00  0.25  0.50  0.00  0.00  0.07  0.00
  2                       1.00   0.25  0.00  0.00  0.13  0.61  0.00  0.00  0.20  0.00
  20                      1.00   0.25  0.00  0.00  0.39  0.35  0.00  0.00  0.47  0.00
  21                      1.00   0.25  0.00  0.00  0.31  0.44  0.00  0.00  0.49  0.00
  22                      1.00   0.25  0.00  0.00  0.72  0.02  0.00  0.00  0.47  0.00
  23                      1.69   0.25  0.00  0.00  0.02  0.73  0.00  0.00  0.01  0.00
  24                      1.00   0.25  0.00  0.00  0.35  0.39  0.00  0.00  0.50  0.00
  25                      4.25   0.26  0.00  0.00  0.30  0.44  0.00  0.00  0.65  0.00
  26                      1.00   0.25  0.00  0.00  0.50  0.25  0.00  0.00  0.57  0.00
  28                      1.00   0.25  0.00  0.00  0.04  0.71  0.00  0.00  0.02  0.00
  29                      3.59   0.25  0.00  0.00  0.23  0.52  0.00  0.00  0.62  0.00
  36                      1.00   0.25  0.00  0.00  0.08  0.67  0.00  0.00  0.04  0.00
  37                      1.00   0.25  0.00  0.00  0.75  0.00  0.00  0.00  0.18  0.00
  38                      1.00   0.25  0.00  0.00  0.33  0.42  0.00  0.00  0.09  0.00
  4                       1.00   0.25  0.00  0.00  0.75  0.00  0.00  0.00  0.57  0.00
  47                      1.00   0.27  0.00  0.00  0.73  0.00  0.00  0.00  0.67  0.00
  49                      1.00   0.28  0.03  0.00  0.69  0.00  0.00  0.00  0.69  0.00
  5                       1.00   0.25  0.00  0.00  0.15  0.60  0.00  0.00  0.05  0.00
  56                      2.20   0.26  0.00  0.00  0.05  0.69  0.00  0.00  0.05  0.00
  57                      3.25   0.25  0.00  0.00  0.01  0.73  0.00  0.00  0.00  0.00
  59                      1.40   0.25  0.00  0.00  0.18  0.57  0.00  0.00  0.52  0.00
  6                       1.00   0.25  0.00  0.00  0.09  0.65  0.00  0.00  0.59  0.00
  60                      1.00   0.28  0.02  0.00  0.17  0.54  0.00  0.00  0.27  0.00
  61                      1.00   0.26  0.02  0.00  0.07  0.66  0.00  0.00  0.57  0.00
  62                      1.47   0.25  0.07  0.00  0.16  0.52  0.00  0.00  0.64  0.00
  63                      1.00   0.00  0.27  0.00  0.73  0.00  0.00  0.00  0.73  0.00
  64                      2.95   0.00  0.25  0.00  0.61  0.14  0.00  0.00  0.75  0.00
  65                      1.00   0.25  0.00  0.00  0.05  0.70  0.00  0.00  0.65  0.00
  66                      1.00   0.25  0.00  0.00  0.02  0.73  0.00  0.00  0.47  0.00
  67                      1.38   0.25  0.18  0.00  0.47  0.10  0.00  0.00  0.73  0.00
  68                      1.00   0.25  0.00  0.00  0.33  0.42  0.00  0.00  0.23  0.00
  69                      1.00   0.25  0.00  0.00  0.12  0.63  0.00  0.00  0.31  0.00
  7                       1.00   0.25  0.00  0.00  0.06  0.69  0.00  0.00  0.11  0.00
  70                      1.00   0.25  0.00  0.00  0.10  0.65  0.00  0.00  0.28  0.00
  71                      1.00   0.25  0.00  0.00  0.13  0.62  0.00  0.00  0.51  0.00
  72                      1.00   0.25  0.00  0.00  0.12  0.63  0.00  0.00  0.15  0.00
  73                      1.00   0.25  0.00  0.00  0.32  0.43  0.00  0.00  0.73  0.00
  74                      1.08   0.25  0.00  0.00  0.34  0.40  0.00  0.00  0.72  0.00
  75                      1.03   0.26  0.00  0.00  0.67  0.06  0.00  0.00  0.41  0.00
  76                      1.00   0.25  0.00  0.00  0.17  0.58  0.00  0.00  0.70  0.00
  77                      1.00   0.25  0.00  0.00  0.16  0.59  0.00  0.00  0.68  0.00
  78                      1.00   0.25  0.00  0.00  0.16  0.59  0.00  0.00  0.49  0.00
  79                      1.14   0.25  0.00  0.00  0.75  0.00  0.00  0.00  0.44  0.00
  80                      1.00   0.25  0.00  0.00  0.12  0.62  0.00  0.00  0.62  0.00
  81                      1.00   0.25  0.00  0.00  0.18  0.56  0.00  0.00  0.59  0.00
  82                      1.00   0.25  0.00  0.00  0.13  0.61  0.00  0.00  0.60  0.00
  83                      1.00   0.25  0.00  0.00  0.10  0.65  0.00  0.00  0.43  0.00
  84                      1.00   0.25  0.00  0.00  0.25  0.50  0.00  0.00  0.57  0.00
  85                      1.00   0.25  0.00  0.00  0.27  0.48  0.00  0.00  0.52  0.00
  86                      1.00   0.25  0.00  0.00  0.24  0.51  0.00  0.00  0.65  0.00
  87                      1.00   0.25  0.00  0.00  0.22  0.53  0.00  0.00  0.53  0.00
  88                      1.00   0.25  0.00  0.00  0.25  0.49  0.00  0.00  0.60  0.00
  89                      1.00   0.25  0.00  0.00  0.14  0.60  0.00  0.00  0.59  0.00
  90                      1.00   0.25  0.00  0.00  0.08  0.66  0.00  0.00  0.13  0.00
  91                      1.00   0.25  0.00  0.00  0.09  0.66  0.00  0.00  0.44  0.00
  92                      1.00   0.25  0.00  0.00  0.23  0.52  0.00  0.00  0.58  0.00
  93                      1.00   0.25  0.00  0.00  0.17  0.58  0.00  0.00  0.14  0.00
  94                      1.00   0.25  0.00  0.00  0.08  0.66  0.00  0.00  0.35  0.00
  95                      1.00   0.25  0.00  0.00  0.23  0.52  0.00  0.00  0.56  0.00
  96                      1.00   0.25  0.00  0.00  0.24  0.50  0.00  0.00  0.55  0.00
  97                      1.00   0.25  0.00  0.00  0.17  0.58  0.00  0.00  0.56  0.00
  98                      1.00   0.25  0.00  0.00  0.19  0.55  0.00  0.00  0.53  0.00
  99                      1.00   0.25  0.00  0.00  0.57  0.17  0.00  0.00  0.09  0.00
  CDT-13                  1.00   0.23  0.04  0.00  0.03  0.70  0.00  0.00  0.00  0.00
  CDT-15                  1.00   0.00  0.00  0.00  0.88  0.12  0.00  0.00  0.69  0.00
  CDT-17                  1.00   0.00  0.00  0.00  0.09  0.91  0.00  0.00  0.09  0.00
  
  
  *************************
  Conduit Surcharge Summary
  *************************
  
  ----------------------------------------------------------------------------
                                                           Hours        Hours 
                         --------- Hours Full --------   Above Full   Capacity
  Conduit                Both Ends  Upstream  Dnstream   Normal Flow   Limited
  ----------------------------------------------------------------------------
  1                           0.51      1.16      0.51      1.13         0.51
  100                         0.62      0.62      0.85      0.18         0.18
  101                         0.61      0.85      0.61      0.82         0.61
  102                         0.01      0.29      0.01      0.01         0.01
  103                         0.52      0.52      1.59      0.24         0.01
  104                         0.48      0.48      0.88      0.12         0.12
  105                         0.53      0.53      0.63      0.01         0.01
  106                         0.69      0.69      1.06      0.38         0.01
  107                         0.92      0.92      1.79      0.47         0.47
  108                         1.06      1.06      1.16      0.55         0.55
  109                         1.16      1.79      1.16      2.06         0.76
  110                         1.16      1.16      1.86      1.04         1.04
  12                          0.17      0.17      1.49      0.01         0.01
  13                          0.01      0.01      1.25      0.01         0.01
  14                          0.39      1.25      0.39      1.15         0.29
  15                          0.17      0.17      0.39      0.01         0.01
  16                          0.39      0.52      0.39      0.53         0.39
  18                          0.31      0.31      0.90      0.01         0.01
  19                          0.90      0.90      0.94      0.56         0.55
  2                           0.01      0.32      0.01      0.09         0.01
  20                          0.94      0.94      1.41      0.05         0.05
  21                          0.84      0.84      1.84      0.62         0.04
  22                          0.96      0.96      1.41      0.02         0.02
  23                          0.01      1.25      0.01      0.97         0.01
  24                          0.85      0.85      1.02      0.58         0.58
  25                          0.01      0.01      2.52      0.01         0.01
  26                          0.61      0.61      0.90      0.51         0.51
  28                          0.10      0.73      0.12      0.19         0.10
  29                          0.01      0.12      0.01      0.01         0.01
  37                          1.01      1.03      1.01      1.33         0.92
  38                          0.98      1.01      0.99      1.04         0.98
  4                           0.50      0.56      0.52      0.60         0.50
  47                          0.01      0.01      2.46      0.01         0.01
  5                           0.19      1.00      0.19      0.97         0.19
  63                          0.01      0.01      2.88      0.01         0.01
  64                          0.01      0.01      2.98      0.01         0.01
  65                          0.29      0.29      0.31      0.17         0.17
  66                          0.32      0.32      1.04      0.29         0.29
  67                          0.01      0.01      0.25      0.01         0.01
  68                          1.23      1.23      1.26      1.05         0.14
  69                          1.26      1.26      1.32      1.09         0.36
  7                           0.01      0.30      0.01      0.23         0.01
  70                          1.32      1.32      1.89      1.21         1.21
  71                          0.14      0.14      0.77      0.10         0.09
  72                          0.38      0.38      0.40      0.33         0.32
  73                          0.01      0.01      0.55      0.01         0.01
  74                          0.01      0.01      0.79      0.01         0.01
  75                          0.79      0.79      1.42      0.01         0.01
  76                          0.08      0.08      0.17      0.01         0.01
  77                          0.17      0.17      0.25      0.01         0.01
  78                          0.25      0.25      1.21      0.22         0.23
  79                          0.90      0.90      1.19      0.04         0.04
  80                          0.40      0.40      0.49      0.01         0.01
  81                          0.49      0.49      1.59      0.43         0.43
  82                          0.42      0.42      0.52      0.14         0.01
  83                          0.52      0.52      1.32      0.31         0.01
  84                          0.57      0.57      0.72      0.01         0.01
  85                          0.72      0.72      0.85      0.01         0.01
  86                          0.09      0.09      0.42      0.01         0.01
  87                          0.47      0.47      0.84      0.34         0.01
  88                          0.47      0.47      0.52      0.01         0.01
  89                          0.52      0.52      0.56      0.29         0.01
  90                          0.56      0.56      0.58      0.44         0.01
  91                          0.58      0.58      1.52      0.01         0.01
  92                          0.25      0.25      0.71      0.11         0.01
  93                          0.76      0.79      0.76      0.78         0.38
  94                          0.76      0.76      1.54      0.68         0.69
  95                          0.65      0.65      0.71      0.01         0.01
  96                          0.71      0.71      0.90      0.62         0.61
  97                          0.42      0.42      0.47      0.33         0.33
  98                          0.71      0.71      0.79      0.58         0.02
  99                          0.50      0.51      0.52      0.35         0.10
  CDT-15                      0.01      0.01      0.02      0.01         0.01
  CDT-17                      0.01      0.02      0.01      0.04         0.01
  
  
  ***************
  Pumping Summary
  ***************
  
  ---------------------------------------------------------------------------------------------------------
                                                  Min       Avg       Max     Total     Power    % Time Off
                        Percent   Number of      Flow      Flow      Flow    Volume     Usage    Pump Curve
  Pump                 Utilized   Start-Ups       CFS       CFS       CFS  10^6 gal     Kw-hr    Low   High
  ---------------------------------------------------------------------------------------------------------
  PUMP-13                  3.06          44      0.00     33.68     36.21     0.111      1.91    0.0    0.0
  
  
  ***************************
  Link Pollutant Load Summary
  ***************************
  
  --------------------------------------------------------------
                                 TSS             K             N
  Link                           lbs           lbs           lbs
  --------------------------------------------------------------
  1                            0.000         0.000         0.000
  100                          0.000         0.000         0.000
  101                          0.000         0.000         0.000
  102                          0.000         0.000         0.000
  103                          0.000         0.000         0.000
  104                          0.000         0.000         0.000
  105                          0.000         0.000         0.000
  106                          0.000         0.000         0.000
  107                          0.044         0.000         0.000
  108                          0.000         0.000         0.000
  109                          0.019         0.000         0.000
  110                          0.019         0.000         0.000
  12                           0.000         0.000         0.000
  13                           0.000         0.000         0.000
  14                           0.000         0.000         0.000
  15                           0.000         0.000         0.000
  16                           0.000         0.000         0.000
  18                           0.000         0.000         0.000
  19                           0.000         0.000         0.000
  2                            0.000         0.000         0.000
  20                           0.000         0.000         0.000
  21                           0.000         0.000         0.000
  22                           0.000         0.000         0.000
  23                           0.000         0.000         0.000
  24                           0.000         0.000         0.000
  25                           0.000         0.000         0.000
  26                           0.000         0.000         0.000
  28                           0.000         0.000         0.000
  29                           0.000         0.000         0.000
  36                           0.000         0.000         0.000
  37                           0.000         0.000         0.000
  38                           0.019         0.000         0.000
  4                            0.000         0.000         0.000
  47                           0.000         0.000         0.000
  49                           0.000         0.000         0.000
  5                            0.000         0.000         0.000
  56                           0.000         0.000         0.000
  57                           0.000         0.000         0.000
  59                           0.000         0.000         0.000
  6                            0.000         0.000         0.000
  60                           0.000         0.000         0.000
  61                           0.000         0.000         0.000
  62                           0.000         0.000         0.000
  63                           0.000         0.000         0.000
  64                           0.000         0.000         0.000
  65                           0.000         0.000         0.000
  66                           0.000         0.000         0.000
  67                           0.000         0.000         0.000
  68                           0.000         0.000         0.000
  69                           0.000         0.000         0.000
  7                            0.000         0.000         0.000
  70                           0.000         0.000         0.000
  71                           0.000         0.000         0.000
  72                           0.000         0.000         0.000
  73                           0.000         0.000         0.000
  74                           0.000         0.000         0.000
  75                           0.000         0.000         0.000
  76                           0.000         0.000         0.000
  77                           0.000         0.000         0.000
  78                           0.000         0.000         0.000
  79                           0.000         0.000         0.000
  80                           0.000         0.000         0.000
  81                           0.000         0.000         0.000
  82                           0.000         0.000         0.000
  83                           0.000         0.000         0.000
  84                           0.000         0.000         0.000
  85                           0.000         0.000         0.000
  86                           0.000         0.000         0.000
  87                           0.000         0.000         0.000
  88                           0.000         0.000         0.000
  89                           0.000         0.000         0.000
  90                           0.000         0.000         0.000
  91                           0.000         0.000         0.000
  92                           0.000         0.000         0.000
  93                           0.000         0.000         0.000
  94                           0.000         0.000         0.000
  95                           0.000         0.000         0.000
  96                           0.000         0.000         0.000
  97                           0.000         0.000         0.000
  98                           0.000         0.000         0.000
  99                           0.000         0.000         0.000
  CDT-13                       0.000         0.000         0.000
  CDT-15                       0.000         0.000         0.000
  CDT-17                       0.000         0.000         0.000
  PUMP-13                      0.000         0.000         0.000
  31                           0.000         0.000         0.000
  8                            0.000         0.000         0.000
  WEIR-11                      0.000         0.000         0.000
  OLET-11                      0.000         0.000         0.000
  OLET-13                      0.000         0.000         0.000
  

  Analysis begun on:  Tue Jun 23 21:18:32 2026
  Analysis ended on:  Tue Jun 23 21:18:32 2026
  Total elapsed time: < 1 sec