
  EPA STORM WATER MANAGEMENT MODEL - VERSION 5.2 (Build 5.2.4)
  ------------------------------------------------------------

  WARNING 01: wet weather time step reduced to recording interval for Rain Gage RAINGAGE-1
  WARNING 02: maximum depth increased for Node CB39
  WARNING 02: maximum depth increased for Node CB40
  WARNING 02: maximum depth increased for Node CB48
  
  ****************
  Analysis Options
  ****************
  Flow Units ............... CFS
  Process Models:
    Rainfall/Runoff ........ YES
    RDII ................... NO
    Snowmelt ............... NO
    Groundwater ............ NO
    Flow Routing ........... YES
    Ponding Allowed ........ YES
    Water Quality .......... NO
  Infiltration Method ...... CURVE_NUMBER
  Flow Routing Method ...... DYNWAVE
  Surcharge Method ......... EXTRAN
  Starting Date ............ 01/01/2016 00:00:00
  Ending Date .............. 01/04/2016 00:00:00
  Antecedent Dry Days ...... 5.0
  Report Time Step ......... 00:05:00
  Wet Time Step ............ 00:02:30
  Dry Time Step ............ 01:00:00
  Routing Time Step ........ 10.00 sec
  Variable Time Step ....... YES
  Maximum Trials ........... 12
  Number of Threads ........ 1
  Head Tolerance ........... 0.000010 ft
  
  
  **************************        Volume         Depth
  Runoff Quantity Continuity     acre-feet        inches
  **************************     ---------       -------
  Total Precipitation ......        90.096         3.140
  Evaporation Loss .........         0.000         0.000
  Infiltration Loss ........        28.925         1.008
  Surface Runoff ...........        59.816         2.085
  Final Storage ............         1.432         0.050
  Continuity Error (%) .....        -0.085
  
  
  **************************        Volume        Volume
  Flow Routing Continuity        acre-feet      10^6 gal
  **************************     ---------     ---------
  Dry Weather Inflow .......         0.000         0.000
  Wet Weather Inflow .......        59.768        19.476
  Groundwater Inflow .......         0.000         0.000
  RDII Inflow ..............         0.000         0.000
  External Inflow ..........         0.863         0.281
  External Outflow .........        26.390         8.600
  Flooding Loss ............        19.560         6.374
  Evaporation Loss .........         0.000         0.000
  Exfiltration Loss ........         0.000         0.000
  Initial Stored Volume ....        26.204         8.539
  Final Stored Volume ......        39.710        12.940
  Continuity Error (%) .....         1.352
  
  
  *************************
  Highest Continuity Errors
  *************************
  Node JCT-163 (93.90%)
  Node JCT-141 (-29.20%)
  Node STOR-83 (28.78%)
  Node JCT-162 (25.20%)
  Node JCT-157 (3.31%)
  
  
  ***************************
  Time-Step Critical Elements
  ***************************
  Link CDT-152 (22.99%)
  
  
  ********************************
  Highest Flow Instability Indexes
  ********************************
  Link WEIR-1 (16)
  Link PROPOSE_166 (11)
  Link CDT-190 (11)
  Link CDT-145 (7)
  Link CDT-147 (1)
  
  
  *********************************
  Most Frequent Nonconverging Nodes
  *********************************
  Node OFALL-11 (100.00%)
  Node OFALL-12 (100.00%)
  Node OFALL-3 (100.00%)
  Node JCT-162 (99.86%)
  Node JCT-163 (99.84%)
  
  
  *************************
  Routing Time Step Summary
  *************************
  Minimum Time Step           :     0.34 sec
  Average Time Step           :     8.70 sec
  Maximum Time Step           :    10.00 sec
  % of Time in Steady State   :     0.00
  Average Iterations per Step :    12.00
  % of Steps Not Converging   :   100.00
  Time Step Frequencies       :
     10.000 -  1.585 sec      :    99.80 %
      1.585 -  0.251 sec      :     0.20 %
      0.251 -  0.040 sec      :     0.00 %
      0.040 -  0.006 sec      :     0.00 %
      0.006 -  0.001 sec      :     0.00 %
  
  
  ***************************
  Subcatchment Runoff Summary
  ***************************
  
  ------------------------------------------------------------------------------------------------------------------------------
                            Total      Total      Total      Total     Imperv       Perv      Total       Total     Peak  Runoff
                           Precip      Runon       Evap      Infil     Runoff     Runoff     Runoff      Runoff   Runoff   Coeff
  Subcatchment                 in         in         in         in         in         in         in    10^6 gal      CFS
  ------------------------------------------------------------------------------------------------------------------------------
  EX-143                     3.14       0.00       0.00       1.02       0.00       2.07       2.07        2.64   166.06   0.660
  EX-144                     3.14       0.00       0.00       1.02       0.00       2.07       2.07        2.38   154.38   0.660
  EX-145                     3.14       0.00       0.00       1.02       0.00       2.07       2.07        2.21   146.29   0.660
  EX-146                     3.14       0.00       0.00       1.02       0.00       2.07       2.07        2.17   144.39   0.661
  EX-147                     3.14       0.00       0.00       1.02       0.00       2.07       2.07        3.75   210.55   0.659
  EX-147_1                   3.14       0.00       0.00       0.95       0.00       2.15       2.15        0.16    13.28   0.684
  EX-148                     3.14       0.00       0.00       1.19       0.00       1.90       1.90        2.01   130.83   0.605
  EX-15                      3.14       0.00       0.00       1.15       0.00       1.94       1.94        0.25    21.31   0.619
  PROJ_100                   3.14       0.00       0.00       0.61       0.00       2.49       2.49        0.34    27.56   0.792
  PROJ_101                   3.14       0.00       0.00       0.61       0.00       2.48       2.48        0.08     6.37   0.791
  PROJ_102                   3.14       0.00       0.00       1.13       0.00       1.96       1.96        0.14    11.59   0.625
  PROJ_103                   3.14       0.00       0.00       1.16       0.00       1.93       1.93        0.13    10.92   0.616
  PROJ_106                   3.14       0.00       0.00       0.43       0.00       2.66       2.66        0.05     4.24   0.848
  PROJ_107-1                 3.14       0.00       0.00       1.30       0.00       1.79       1.79        0.01     1.22   0.569
  PROJ_107-2                 3.14       0.00       0.00       1.30       0.00       1.79       1.79        0.01     0.76   0.569
  PROJ_107-3                 3.14       0.00       0.00       1.30       0.00       1.79       1.79        0.02     1.37   0.569
  PROJ_108-1                 3.14       0.00       0.00       0.61       0.00       2.48       2.48        0.07     5.86   0.791
  PROJ_108-2                 3.14       0.00       0.00       0.43       0.00       2.66       2.66        0.05     3.91   0.848
  PROJ_109                   3.14       0.00       0.00       0.61       0.00       2.48       2.48        0.07     5.53   0.791
  PROJ_110-1                 3.14       0.00       0.00       1.13       0.00       1.96       1.96        0.04     3.13   0.624
  PROJ_201                   3.14       0.00       0.00       0.61       0.00       2.49       2.49        0.16    12.73   0.791
  PROJ_204                   3.14       0.00       0.00       0.43       0.00       2.66       2.66        0.06     4.60   0.849
  PROJ_43                    3.14       0.00       0.00       0.43       0.00       2.66       2.66        0.05     4.01   0.848
  PROJ_44                    3.14       0.00       0.00       0.43       0.00       2.66       2.66        0.05     4.01   0.848
  PROJ_45                    3.14       0.00       0.00       0.61       0.00       2.48       2.48        0.04     3.28   0.791
  PROJ_62                    3.14       0.00       0.00       0.43       0.00       2.66       2.66        0.05     4.37   0.848
  PROJ_63                    3.14       0.00       0.00       1.39       0.00       1.70       1.70        0.02     1.52   0.541
  PROJ_64                    3.14       0.00       0.00       0.43       0.00       2.66       2.66        0.05     4.26   0.848
  PROJ_65                    3.14       0.00       0.00       1.13       0.00       1.96       1.96        0.19    15.91   0.625
  PROJ_66                    3.14       0.00       0.00       1.39       0.00       1.70       1.70        0.02     1.84   0.541
  PROJ_67                    3.14       0.00       0.00       0.43       0.00       2.66       2.66        0.07     5.47   0.849
  PROJ_68                    3.14       0.00       0.00       1.40       0.00       1.69       1.69        0.11     9.37   0.540
  PROJ_69                    3.14       0.00       0.00       0.43       0.00       2.66       2.66        0.08     6.50   0.849
  PROJ_70                    3.14       0.00       0.00       0.43       0.00       2.66       2.66        0.06     4.66   0.848
  PROJ_71                    3.14       0.00       0.00       0.43       0.00       2.66       2.66        0.07     5.24   0.849
  PROJ_72                    3.14       0.00       0.00       1.13       0.00       1.96       1.96        0.22    18.65   0.625
  PROJ_72_2                  3.14       0.00       0.00       0.61       0.00       2.48       2.48        0.10     8.07   0.791
  PROJ_75                    3.14       0.00       0.00       0.43       0.00       2.66       2.66        0.07     5.87   0.849
  PROJ_75-2                  3.14       0.00       0.00       0.43       0.00       2.66       2.66        0.07     5.58   0.849
  PROJ_77                    3.14       0.00       0.00       0.43       0.00       2.66       2.66        0.03     2.13   0.848
  PROJ_78                    3.14       0.00       0.00       0.43       0.00       2.66       2.66        0.07     5.64   0.849
  PROJ_79                    3.14       0.00       0.00       0.43       0.00       2.66       2.66        0.02     1.96   0.848
  PROJ_81                    3.14       0.00       0.00       0.43       0.00       2.66       2.66        0.06     5.06   0.849
  PROJ_82                    3.14       0.00       0.00       0.43       0.00       2.66       2.66        0.03     2.70   0.848
  PROJ_83                    3.14       0.00       0.00       0.43       0.00       2.66       2.66        0.02     1.84   0.848
  PROJ_85                    3.14       0.00       0.00       0.43       0.00       2.66       2.66        0.05     4.03   0.848
  PROJ_86                    3.14       0.00       0.00       0.43       0.00       2.66       2.66        0.07     5.52   0.849
  PROJ_88                    3.14       0.00       0.00       0.43       0.00       2.66       2.66        0.05     3.68   0.848
  PROJ_89                    3.14       0.00       0.00       1.13       0.00       1.96       1.96        0.17    14.08   0.625
  PROJ_90                    3.14       0.00       0.00       0.43       0.00       2.66       2.66        0.05     3.77   0.848
  PROJ_91                    3.14       0.00       0.00       0.61       0.00       2.48       2.48        0.01     0.84   0.791
  PROJ_93                    3.14       0.00       0.00       0.43       0.00       2.66       2.66        0.06     4.95   0.849
  PROJ_93-1                  3.14       0.00       0.00       0.61       0.00       2.48       2.48        0.01     1.21   0.791
  PROJ_94                    3.14       0.00       0.00       0.43       0.00       2.66       2.66        0.05     4.10   0.848
  PROJ_95-2                  3.14       0.00       0.00       1.36       0.00       1.73       1.73        0.01     0.88   0.552
  PROJ_95-3                  3.14       0.00       0.00       1.36       0.00       1.73       1.73        0.03     2.91   0.552
  PROJ_95-4                  3.14       0.00       0.00       1.42       0.00       1.67       1.67        0.01     0.43   0.532
  PROJ_96                    3.14       0.00       0.00       1.13       0.00       1.96       1.96        0.08     7.08   0.625
  PROJ_97                    3.14       0.00       0.00       0.43       0.00       2.66       2.66        0.07     5.47   0.849
  PROJ_98-3                  3.14       0.00       0.00       0.85       0.00       2.24       2.24        0.12     9.71   0.715
  PROJ_99                    3.14       0.00       0.00       0.61       0.00       2.49       2.49        0.22    17.87   0.792
  PROPOSE_258B               3.14       0.00       0.00       1.39       0.00       1.70       1.70        0.01     0.78   0.540
  PROPOSE_ST203B             3.14       0.00       0.00       1.11       0.00       1.98       1.98        0.03     2.81   0.632
  PROPOSE_ST203C             3.14       0.00       0.00       1.11       0.00       1.98       1.98        0.01     1.04   0.631
  PROPOSE_ST208D             3.14       0.00       0.00       3.04       0.00       0.06       0.06        0.00     0.06   0.018
  
  
  ******************
  Node Depth Summary
  ******************
  
  ---------------------------------------------------------------------------------
                                 Average  Maximum  Maximum  Time of Max    Reported
                                   Depth    Depth      HGL   Occurrence   Max Depth
  Node                 Type         Feet     Feet     Feet  days hr:min        Feet
  ---------------------------------------------------------------------------------
  CB29                 JUNCTION     0.03     0.72   901.51     0  12:03        0.69
  CB30                 JUNCTION     0.00     0.00   901.01     0  00:00        0.00
  CB31                 JUNCTION     0.03     0.61   901.29     0  12:05        0.61
  CB32                 JUNCTION     0.02     0.49   901.73     0  12:02        0.46
  CB33                 JUNCTION     0.02     0.57   901.81     0  12:02        0.55
  CB34                 JUNCTION     0.03     0.70   900.45     0  12:02        0.69
  CB35                 JUNCTION     0.01     0.23   900.73     0  12:05        0.23
  CB36                 JUNCTION     0.02     0.48   901.05     0  12:02        0.45
  CB37                 JUNCTION     0.03     0.69   900.31     0  12:03        0.66
  CB38                 JUNCTION     0.01     0.41   900.41     0  12:02        0.38
  CB39                 JUNCTION     0.06     1.08   900.08     0  12:08        0.77
  CB40                 JUNCTION     0.04     1.07   900.07     0  12:08        0.77
  CB41                 JUNCTION     0.03     1.12   899.53     0  12:08        0.70
  CB42                 JUNCTION     0.03     0.72   899.41     0  12:08        0.62
  CB43                 JUNCTION     0.01     0.64   899.64     0  12:08        0.30
  CB44                 JUNCTION     0.02     0.76   899.51     0  12:07        0.47
  CB45                 JUNCTION     0.02     0.36   900.75     0  12:02        0.33
  CB46                 JUNCTION     0.02     0.47   900.63     0  12:02        0.43
  CB47                 JUNCTION     0.02     0.44   900.60     0  12:02        0.43
  CB48                 JUNCTION     0.06     2.08   900.08     0  12:06        0.90
  CB49                 JUNCTION     0.05     2.11   900.11     0  12:06        1.61
  CS2                  JUNCTION     4.91     6.48   895.00     0  12:28        6.45
  JCT-109              JUNCTION    18.50    54.29   940.22     0  00:00       18.50
  JCT-110              JUNCTION    10.54    86.34   980.29     0  00:03       12.03
  JCT-112              JUNCTION     9.73    13.37   897.45     0  00:02       11.06
  JCT-113              JUNCTION    10.53    55.01   948.94     0  00:03       11.28
  JCT-114              JUNCTION     4.28     5.30   894.83     0  12:51        5.30
  JCT-141              JUNCTION     6.89     8.34   895.31     0  12:58        8.31
  JCT-157              JUNCTION     8.88    14.37   899.30     0  00:01       10.05
  JCT-161              JUNCTION    21.18    66.57   950.00     0  00:02       25.74
  JCT-162              JUNCTION    21.05    66.57   950.00     0  00:03       22.55
  JCT-163              JUNCTION    21.05    86.57   970.00     0  00:03       22.55
  M23                  JUNCTION     0.03     1.84   899.49     0  12:09        1.76
  M24                  JUNCTION     0.05     2.15   899.41     0  12:10        2.15
  M25                  JUNCTION     0.06     2.35   899.29     0  12:10        2.34
  M26                  JUNCTION     0.04     1.02   901.00     0  12:02        1.00
  M27                  JUNCTION     0.08     2.68   899.33     0  12:08        2.51
  M28                  JUNCTION     0.09     2.93   899.35     0  12:08        2.67
  M29                  JUNCTION     0.09     3.13   899.37     0  12:07        2.80
  M30                  JUNCTION     0.11     3.43   899.39     0  12:07        3.04
  M32                  JUNCTION     0.15     4.07   899.72     0  12:07        3.26
  M33                  JUNCTION     0.10     1.93   899.94     0  12:08        1.59
  M34                  JUNCTION     0.16     4.20   899.67     0  12:07        3.36
  M35                  JUNCTION     0.01     0.50   899.50     0  12:09        0.32
  M36                  JUNCTION     0.17     4.35   899.63     0  12:06        3.45
  M37                  JUNCTION     0.17     4.44   899.46     0  12:07        3.50
  M38                  JUNCTION     0.16     4.57   899.38     0  12:07        3.56
  M39                  JUNCTION     0.19     4.70   899.37     0  12:07        3.65
  M40                  JUNCTION     0.09     3.18   899.91     0  12:06        2.05
  PROPOSE_CB100        JUNCTION     0.05     0.44   896.12     0  12:19        0.44
  PROPOSE_CB28         JUNCTION     0.03     0.71   901.76     0  12:02        0.70
  PROPOSE_M200         JUNCTION     0.07     0.61   895.46     0  12:20        0.61
  PROPOSE_M22          JUNCTION     0.00     0.00   896.16     0  00:00        0.00
  PROPOSE_M300         JUNCTION     0.07     0.60   895.79     0  12:19        0.60
  ST-200               JUNCTION     0.19     4.83   899.31     0  12:07        3.71
  ST-201               JUNCTION     0.21     4.96   899.26     0  12:07        3.77
  ST-201A              JUNCTION     0.20     1.00   899.31     0  12:07        0.75
  ST-201B              JUNCTION     0.03     2.51   900.61     0  12:07        0.67
  ST-202               JUNCTION     0.19     5.66   899.63     0  12:06        3.75
  ST-202A              JUNCTION     0.22     8.68   905.43     0  12:06        0.96
  ST-203               JUNCTION     0.20     4.98   898.78     0  12:06        3.78
  ST-203A              JUNCTION     0.20     0.72   900.53     0  12:02        0.69
  ST-203B              JUNCTION     0.17     0.50   901.53     0  12:02        0.50
  ST-204               JUNCTION     0.19     4.97   898.60     0  12:06        3.80
  ST-204A              JUNCTION     7.90    91.15   977.65     0  15:35       42.62
  ST-204B              JUNCTION     0.25     1.61   888.04     0  12:08        1.57
  ST-204C              JUNCTION     0.21     1.27   888.06     0  12:08        1.23
  ST-205               JUNCTION     0.20     4.97   898.45     0  12:06        3.86
  ST-206               JUNCTION     0.20     5.00   898.27     0  12:05        3.88
  ST-207               JUNCTION     0.21     5.34   898.45     0  12:05        3.92
  ST-207A              JUNCTION     0.17     0.53   898.66     0  12:02        0.53
  ST-207B              JUNCTION     0.20     2.56   899.27     0  12:06        0.86
  ST-208               JUNCTION     0.23     4.95   897.78     0  12:06        4.02
  ST-208A              JUNCTION     0.03     0.82   898.32     0  12:03        0.80
  ST-208B              JUNCTION     0.20     0.82   898.41     0  12:02        0.78
  ST-208C              JUNCTION     0.03     3.46   899.02     0  12:05        1.32
  ST-208D              JUNCTION     0.18     5.80   901.61     0  12:05        1.09
  ST-209               JUNCTION     0.21     5.13   897.64     0  12:06        4.16
  ST-210               JUNCTION     0.23     5.01   897.38     0  12:06        4.23
  ST-211               JUNCTION     0.27     4.88   897.09     0  12:06        4.32
  ST-211A              JUNCTION     0.04     1.20   897.56     0  12:02        0.91
  ST-211B              JUNCTION     0.04     1.17   897.97     0  12:02        1.02
  ST-211C              JUNCTION     0.07     3.07   897.33     0  12:05        3.06
  ST-211D              JUNCTION     0.07     3.69   898.39     0  12:05        3.67
  ST-212               JUNCTION     0.25     4.43   896.30     0  12:07        4.12
  ST-212A              JUNCTION     0.02     0.63   898.83     0  12:02        0.54
  ST-212B              JUNCTION     0.05     2.64   898.38     0  12:01        2.32
  ST-212C              JUNCTION     0.05     3.46   899.56     0  12:02        2.79
  ST-213               JUNCTION     0.27     4.39   896.11     0  12:07        4.05
  ST-214               JUNCTION     0.10     3.37   898.22     0  12:03        2.88
  ST-214A              JUNCTION     0.24     3.78   899.67     0  12:03        3.36
  ST-215               JUNCTION     0.06     3.30   899.20     0  12:03        2.19
  ST-215A              JUNCTION     0.03     3.14   899.44     0  12:03        1.88
  ST-215B              JUNCTION     0.02     2.82   899.70     0  12:03        1.32
  ST-215C              JUNCTION     0.04     2.99   899.73     0  12:03        1.95
  ST-215D              JUNCTION     0.03     3.32   900.42     0  12:03        1.77
  ST-250               JUNCTION     9.68    12.36   896.49     0  00:02       10.97
  ST-251               JUNCTION     0.11     2.58   895.69     0  12:05        2.46
  ST-252               JUNCTION     0.12     2.92   896.36     0  12:05        2.79
  ST-253               JUNCTION     0.12     3.31   897.17     0  12:05        3.16
  ST-253A              JUNCTION     0.01     1.35   897.25     0  12:05        1.32
  ST-253B              JUNCTION     0.03     2.08   897.38     0  12:05        1.94
  ST-254               JUNCTION     0.11     3.42   897.56     0  12:05        3.22
  ST-254A              JUNCTION     0.00     0.64   897.70     0  12:06        0.05
  ST-255               JUNCTION     0.10     3.44   898.00     0  12:05        3.16
  ST-255A              JUNCTION     0.03     1.24   897.98     0  12:05        0.86
  ST-255B              JUNCTION     0.02     0.97   898.17     0  12:06        0.38
  ST-255C              JUNCTION     0.05     2.87   898.23     0  12:05        2.67
  ST-255D              JUNCTION     0.05     3.39   899.29     0  12:03        3.29
  ST-256               JUNCTION     0.10     3.22   898.05     0  12:05        3.11
  ST-256A              JUNCTION     0.00     1.60   898.30     0  12:05        1.03
  ST-256B              JUNCTION     0.03     1.90   898.20     0  12:04        1.88
  ST-257               JUNCTION     0.05     2.60   898.18     0  12:05        2.45
  ST-258               JUNCTION     0.05     2.00   898.30     0  12:05        1.79
  ST-258A              JUNCTION     0.03     1.08   898.30     0  12:06        0.86
  ST-258B              JUNCTION     0.01     0.62   898.42     0  12:06        0.24
  ST-258C              JUNCTION     0.04     1.22   898.70     0  12:05        1.17
  ST-258D              JUNCTION     0.04     1.09   899.19     0  12:05        1.08
  OFALL-11             OUTFALL      0.20     3.68   895.23     0  12:07        3.51
  OFALL-12             OUTFALL      0.10     2.44   895.44     0  12:06        2.24
  OFALL-3              OUTFALL     18.53    18.53   904.43     0  00:00       18.53
  LIFT_STAT1           STORAGE     11.88    14.06   895.99     0  00:03       13.25
  POND_A1              STORAGE      8.88    10.00   894.93     0  12:33        9.95
  POND_A2              STORAGE      0.07     0.61   896.54     0  12:19        0.61
  POND_B               STORAGE      4.88     5.99   894.92     0  12:36        5.98
  POND_C               STORAGE      4.88     5.95   894.88     0  12:42        5.95
  POND_D               STORAGE      4.88     5.95   894.88     0  12:50        5.95
  POND_E               STORAGE      4.88     5.93   894.86     0  12:51        5.93
  POND_F               STORAGE      4.84     5.00   893.93     0  12:07        5.00
  ST-203LS             STORAGE      1.41     4.54   888.04     0  12:08        4.49
  STOR-60              STORAGE      0.03     0.49   903.99     0  12:07        0.47
  STOR-61              STORAGE      0.07     0.50   904.70     0  12:13        0.50
  STOR-62              STORAGE      0.05     0.52   903.37     0  12:10        0.52
  STOR-83              STORAGE      7.27     8.95   895.08     0  12:26        8.72
  STOR-84              STORAGE      0.00     0.00   897.18     0  00:00        0.00
  
  
  *******************
  Node Inflow Summary
  *******************
  
  -------------------------------------------------------------------------------------------------
                                  Maximum  Maximum                  Lateral       Total        Flow
                                  Lateral    Total  Time of Max      Inflow      Inflow     Balance
                                   Inflow   Inflow   Occurrence      Volume      Volume       Error
  Node                 Type           CFS      CFS  days hr:min    10^6 gal    10^6 gal     Percent
  -------------------------------------------------------------------------------------------------
  CB29                 JUNCTION      0.00     3.29     0  12:03           0      0.0402      -0.005
  CB30                 JUNCTION      0.00     0.00     0  00:00           0           0       0.000 gal
  CB31                 JUNCTION      3.13     3.13     0  12:05      0.0371      0.0371      -0.001
  CB32                 JUNCTION      4.01     4.01     0  12:05      0.0503      0.0503      -0.007
  CB33                 JUNCTION      4.01     4.01     0  12:05      0.0503      0.0503      -0.002
  CB34                 JUNCTION      5.86     5.86     0  12:05      0.0718      0.0718      -0.000
  CB35                 JUNCTION      0.76     0.76     0  12:05     0.00901     0.00901       0.005
  CB36                 JUNCTION      3.91     3.91     0  12:05       0.049       0.049      -0.007
  CB37                 JUNCTION      4.24     5.59     0  12:03      0.0532      0.0694       0.074
  CB38                 JUNCTION      1.37     1.37     0  12:05      0.0162      0.0162      -0.064
  CB39                 JUNCTION      1.22     6.37     0  12:11      0.0144       0.268      -0.022
  CB40                 JUNCTION      0.43     6.86     0  12:06     0.00511       0.135       0.140
  CB41                 JUNCTION      4.95     6.14     0  12:05      0.0621      0.0771       0.202
  CB42                 JUNCTION      4.10     5.01     0  12:04      0.0515      0.0619       0.334
  CB43                 JUNCTION      1.21     1.21     0  12:05      0.0149       0.015      -0.013
  CB44                 JUNCTION      2.91     2.91     0  12:05      0.0343      0.0343       0.377
  CB45                 JUNCTION      0.84     0.84     0  12:05      0.0103      0.0103      -0.360
  CB46                 JUNCTION      3.77     4.60     0  12:05      0.0473      0.0576       0.064
  CB47                 JUNCTION      3.68     3.68     0  12:05      0.0462      0.0462       0.088
  CB48                 JUNCTION      0.00     5.01     0  12:10           0       0.167      -0.125
  CB49                 JUNCTION     11.59    11.59     0  12:05       0.138       0.138       0.142
  CS2                  JUNCTION      0.00     8.99     0  00:00           0      0.0151     112.895
  JCT-109              JUNCTION      0.00  1465.03     0  00:00           0        4.75       3.258
  JCT-110              JUNCTION      0.00   224.84     0  00:03           0         4.6       1.829
  JCT-112              JUNCTION      0.00   500.65     0  00:01           0        5.68       0.130
  JCT-113              JUNCTION      0.00   126.47     0  00:00           0         4.6       0.237
  JCT-114              JUNCTION      0.00    41.29     0  12:53           0        5.65       0.234
  JCT-141              JUNCTION      0.00   112.41     0  00:00           0       0.443     -22.602
  JCT-157              JUNCTION      0.00   560.09     0  00:00           0        4.38       3.421
  JCT-161              JUNCTION      0.00    90.18     0  00:02           0        4.46       0.329
  JCT-162              JUNCTION      0.00    86.30     0  00:02           0      0.0618      33.681
  JCT-163              JUNCTION      0.00    52.47     0  00:03           0       0.025    1538.703
  M23                  JUNCTION      0.00     3.37     0  12:03           0      0.0403      -0.007
  M24                  JUNCTION      0.00     5.81     0  12:04           0      0.0777      -0.050
  M25                  JUNCTION      0.00     9.98     0  12:04           0       0.145      -0.011
  M26                  JUNCTION      5.53     5.53     0  12:05      0.0679      0.0679       0.002
  M27                  JUNCTION      0.00    16.47     0  12:05           0       0.246       0.015
  M28                  JUNCTION      0.00    21.00     0  12:05           0       0.318       0.020
  M29                  JUNCTION      0.00    20.28     0  12:05           0       0.327      -0.120
  M30                  JUNCTION      0.00    27.95     0  12:05           0       0.445       0.050
  M32                  JUNCTION      0.00    38.71     0  12:12           0       0.847      -0.178
  M33                  JUNCTION      0.00    13.35     0  12:09           0       0.402      -0.004
  M34                  JUNCTION      0.00    44.98     0  12:06           0       0.987       0.054
  M35                  JUNCTION      0.88     0.88     0  12:05      0.0104      0.0104       0.007
  M36                  JUNCTION      0.00    45.32     0  12:06           0        1.02       0.017
  M37                  JUNCTION      0.00    45.88     0  12:12           0        1.02       0.169
  M38                  JUNCTION      0.00    50.48     0  12:05           0        1.12       0.165
  M39                  JUNCTION      0.00    63.25     0  12:05           0        1.43       0.007
  M40                  JUNCTION      0.00    15.27     0  12:05           0       0.305       0.110
  PROPOSE_CB100        JUNCTION      0.00     2.50     0  12:19           0       0.157       0.010
  PROPOSE_CB28         JUNCTION      3.28     3.28     0  12:05      0.0402      0.0402      -0.002
  PROPOSE_M200         JUNCTION      0.00     2.50     0  12:20           0       0.157      -0.017
  PROPOSE_M22          JUNCTION      0.00     0.00     0  00:00           0           0       0.000 gal
  PROPOSE_M300         JUNCTION      0.00     2.50     0  12:19           0       0.157      -0.002
  ST-200               JUNCTION      0.00    62.50     0  12:10           0        1.43      -0.088
  ST-201               JUNCTION      0.00    66.45     0  12:10           0        1.55       0.060
  ST-201A              JUNCTION      4.03     4.03     0  12:05      0.0505      0.0505      -0.317
  ST-201B              JUNCTION      5.52     5.52     0  12:05      0.0693      0.0693       0.225
  ST-202               JUNCTION      0.00    70.11     0  12:11           0        1.55      -0.103
  ST-202A              JUNCTION      0.00     7.61     0  12:06           0     0.00321      -7.686
  ST-203               JUNCTION      0.00    72.91     0  12:11           0         1.6      -0.020
  ST-203A              JUNCTION      2.70     2.70     0  12:05      0.0339      0.0339       0.047
  ST-203B              JUNCTION      1.84     1.84     0  12:05      0.0231      0.0231       0.070
  ST-204               JUNCTION      0.00    75.41     0  12:11           0        1.65       0.122
  ST-204A              JUNCTION      0.00     1.70     0  09:58           0      0.0453      -0.047
  ST-204B              JUNCTION      2.81     3.65     0  12:03      0.0333      0.0456       0.494
  ST-204C              JUNCTION      1.04     1.04     0  12:05      0.0124      0.0124       0.370
  ST-205               JUNCTION      0.00    76.16     0  12:11           0        1.65      -0.050
  ST-206               JUNCTION      0.00    76.95     0  12:11           0        1.65       0.174
  ST-207               JUNCTION      0.00    79.99     0  12:11           0        1.75       0.039
  ST-207A              JUNCTION      1.96     1.96     0  12:05      0.0245      0.0245       0.404
  ST-207B              JUNCTION      6.37     6.37     0  12:05      0.0781      0.0781       0.316
  ST-208               JUNCTION      0.00    85.93     0  12:09           0        1.91       0.246
  ST-208A              JUNCTION      5.64     7.77     0  12:03      0.0708      0.0975       0.228
  ST-208B              JUNCTION      2.13     2.13     0  12:05      0.0267      0.0267       0.038
  ST-208C              JUNCTION      5.06     5.19     0  12:04      0.0636      0.0668       0.605
  ST-208D              JUNCTION      0.06     2.82     0  12:05     0.00253     0.00321      -1.853
  ST-209               JUNCTION      0.00    88.64     0  12:09           0        1.91       0.572
  ST-210               JUNCTION      0.00    90.22     0  12:09           0         1.9       0.303
  ST-211               JUNCTION      0.00   112.27     0  12:09           0        2.53       0.167
  ST-211A              JUNCTION      5.58    18.55     0  12:03      0.0701       0.227      -0.063
  ST-211B              JUNCTION     12.73    12.73     0  12:05       0.156       0.156      -0.170
  ST-211C              JUNCTION      5.87    33.43     0  12:05      0.0737       0.413      -0.022
  ST-211D              JUNCTION     27.56    27.56     0  12:05        0.34        0.34       0.146
  ST-212               JUNCTION      0.00   126.80     0  12:08           0        2.87      -0.264
  ST-212A              JUNCTION      4.66     4.66     0  12:05      0.0585      0.0585      -0.016
  ST-212B              JUNCTION      5.24    23.11     0  12:05      0.0657       0.285       0.151
  ST-212C              JUNCTION     17.87    17.87     0  12:05        0.22        0.22       0.021
  ST-213               JUNCTION      0.00   156.41     0  12:06           0        3.37      -0.044
  ST-214               JUNCTION      0.00    40.20     0  12:05           0       0.493      -0.052
  ST-214A              JUNCTION     18.65    18.65     0  12:05       0.222       0.222       0.002
  ST-215               JUNCTION      0.00    21.86     0  12:05           0       0.271      -0.038
  ST-215A              JUNCTION      5.47     7.30     0  12:05      0.0686      0.0903       0.065
  ST-215B              JUNCTION      1.84     1.84     0  12:05      0.0216      0.0216      -0.174
  ST-215C              JUNCTION      6.50    14.57     0  12:05      0.0816       0.181       0.030
  ST-215D              JUNCTION      8.07     8.07     0  12:05       0.099       0.099      -0.018
  ST-250               JUNCTION      0.00   436.76     0  00:00           0        4.37       2.710
  ST-251               JUNCTION      0.00    55.61     0  12:06           0        0.76       0.087
  ST-252               JUNCTION      0.00    54.49     0  12:05           0       0.757      -0.326
  ST-253               JUNCTION      0.00    54.42     0  12:05           0       0.761       0.348
  ST-253A              JUNCTION      0.00     1.65     0  12:04           0       0.001       1.620
  ST-253B              JUNCTION      9.37     9.37     0  12:05       0.111       0.111      -0.024
  ST-254               JUNCTION      0.00    47.45     0  12:05           0        0.65       0.015
  ST-254A              JUNCTION      0.00     1.15     0  12:05           0    0.000485       8.632
  ST-255               JUNCTION      0.00    49.03     0  12:04           0       0.652       0.447
  ST-255A              JUNCTION      4.26     5.76     0  12:03      0.0534      0.0714       0.290
  ST-255B              JUNCTION      1.52     1.52     0  12:05      0.0179      0.0179      -0.195
  ST-255C              JUNCTION      5.47    21.38     0  12:05      0.0686       0.258       0.042
  ST-255D              JUNCTION     15.91    15.91     0  12:05       0.189       0.189      -0.002
  ST-256               JUNCTION      0.00    25.12     0  12:04           0       0.324      -0.134
  ST-256A              JUNCTION      0.00     2.04     0  12:03           0     0.00118      -0.404
  ST-256B              JUNCTION      7.08     7.08     0  12:05       0.084       0.084      -0.025
  ST-257               JUNCTION      0.00    19.00     0  12:03           0       0.238      -0.106
  ST-258               JUNCTION      0.00    19.64     0  12:03           0       0.238      -0.105
  ST-258A              JUNCTION      4.37     5.13     0  12:04      0.0549      0.0641       0.063
  ST-258B              JUNCTION      0.78     0.78     0  12:05      0.0092      0.0092      -0.115
  ST-258C              JUNCTION      4.60    14.16     0  12:05      0.0578       0.175       0.262
  ST-258D              JUNCTION      9.71     9.71     0  12:05       0.117       0.117       0.026
  OFALL-11             OUTFALL       0.00   158.05     0  12:07           0        3.37       0.000
  OFALL-12             OUTFALL       0.00    56.62     0  12:06           0       0.759       0.000
  OFALL-3              OUTFALL       0.00  1465.03     0  00:00           0        4.75       0.000
  LIFT_STAT1           STORAGE       0.00   263.83     0  00:01           0        4.61      -0.444
  POND_A1              STORAGE     210.55   229.68     0  00:04        3.75        12.5       0.603
  POND_A2              STORAGE      13.28    13.28     0  12:05       0.159       0.159       0.020
  POND_B               STORAGE     144.39   207.06     0  12:06        2.17        10.1       0.240
  POND_C               STORAGE     146.29   146.29     0  12:05        2.21        6.37       0.178
  POND_D               STORAGE     154.38   247.04     0  12:06        2.38        8.03       0.114
  POND_E               STORAGE     166.06   166.06     0  12:05        2.64        7.45       0.090
  POND_F               STORAGE     130.83   145.09     0  12:05           2        8.78       0.121
  ST-203LS             STORAGE       0.00     2.79     0  12:02           0      0.0454      -0.497
  STOR-60              STORAGE      10.92    10.92     0  12:05        0.13        0.13       0.053
  STOR-61              STORAGE      21.31    21.31     0  12:05       0.255       0.255       0.145
  STOR-62              STORAGE      14.08    14.08     0  12:05       0.167       0.167       0.144
  STOR-83              STORAGE       0.00    72.64     0  00:00           0       0.486      40.408
  STOR-84              STORAGE       0.00     0.00     0  00:00           0           0       0.000 gal
  
  
  **********************
  Node Surcharge Summary
  **********************
  
  Surcharging occurs when water rises above the top of the highest conduit.
  ---------------------------------------------------------------------
                                               Max. Height   Min. Depth
                                   Hours       Above Crown    Below Rim
  Node                 Type      Surcharged           Feet         Feet
  ---------------------------------------------------------------------
  CB49                 JUNCTION        0.11          0.863        1.887
  CS2                  JUNCTION       60.58          1.964        7.426
  JCT-109              JUNCTION       71.99         40.287        0.000
  JCT-110              JUNCTION       71.94         82.844        0.000
  JCT-112              JUNCTION        1.47          2.851        3.979
  JCT-113              JUNCTION       71.99         51.014        0.000
  JCT-114              JUNCTION        3.44          0.802        7.668
  JCT-157              JUNCTION       71.96          7.373        0.000
  JCT-161              JUNCTION       71.96         64.070        0.000
  JCT-162              JUNCTION       71.95         64.070        0.000
  JCT-163              JUNCTION       71.94         84.070        0.000
  M32                  JUNCTION        0.02          0.430        5.830
  M34                  JUNCTION        0.01          0.313        5.407
  M36                  JUNCTION        0.03          0.534        5.886
  M37                  JUNCTION        0.06          0.837        6.283
  M39                  JUNCTION        0.03          0.603        5.757
  M40                  JUNCTION        0.04          0.828        5.542
  ST-200               JUNCTION        0.04          0.731        2.769
  ST-201B              JUNCTION        0.01          1.260        3.140
  ST-202               JUNCTION        0.05          1.559        6.981
  ST-202A              JUNCTION        0.01          6.430        0.000
  ST-204               JUNCTION        0.05          0.770        7.137
  ST-204A              JUNCTION       62.03         90.817        0.000
  ST-205               JUNCTION        0.06          0.871        6.049
  ST-206               JUNCTION        0.06          0.900        8.450
  ST-207               JUNCTION        0.04          0.842        7.668
  ST-207B              JUNCTION        0.01          1.122        4.228
  ST-208C              JUNCTION        0.07          1.959        5.091
  ST-208D              JUNCTION        0.05          4.363        1.037
  ST-209               JUNCTION        0.03          0.531        6.229
  ST-210               JUNCTION        0.04          0.415        6.485
  ST-211C              JUNCTION        0.14          1.067        5.543
  ST-211D              JUNCTION        0.18          2.193        2.937
  ST-212B              JUNCTION        0.08          1.145        4.865
  ST-212C              JUNCTION        0.09          2.211        3.139
  ST-214               JUNCTION        0.05          0.866        6.894
  ST-214A              JUNCTION        0.08          2.068        3.032
  ST-215               JUNCTION        0.01          1.048        4.992
  ST-215A              JUNCTION        0.06          1.792        4.248
  ST-215B              JUNCTION        0.03          1.567        3.303
  ST-215C              JUNCTION        0.04          1.487        3.963
  ST-215D              JUNCTION        0.04          2.073        3.327
  ST-250               JUNCTION       71.97          5.358        8.412
  ST-253               JUNCTION        0.03          0.214        8.326
  ST-253B              JUNCTION        0.01          0.083        4.487
  ST-255               JUNCTION        0.02          0.254        6.616
  ST-255C              JUNCTION        0.06          0.870        6.770
  ST-255D              JUNCTION        0.12          2.145        3.185
  ST-256               JUNCTION        0.03          0.223        9.567
  ST-256A              JUNCTION        0.01          0.101        2.979
  ST-256B              JUNCTION        0.04          0.405        4.515
  ST-257               JUNCTION        0.06          0.501        8.909
  
  
  *********************
  Node Flooding Summary
  *********************
  
  Flooding refers to all water that overflows a node, whether it ponds or not.
  --------------------------------------------------------------------------
                                                             Total   Maximum
                                 Maximum   Time of Max       Flood    Ponded
                        Hours       Rate    Occurrence      Volume     Depth
  Node                 Flooded       CFS   days hr:min    10^6 gal      Feet
  --------------------------------------------------------------------------
  JCT-157                 0.01    247.99      0  00:01       0.023     0.303
  JCT-161                 0.01     64.55      0  00:02       0.003     0.000
  JCT-162                 0.01     42.30      0  00:03       0.003     0.000
  JCT-163                 0.01     30.91      0  00:03       0.001     0.000
  ST-202A                 0.01      5.33      0  12:06       0.000     0.000
  POND_F                 13.85    127.95      0  12:07       6.366     0.000
  
  
  **********************
  Storage Volume Summary
  **********************
  
  ------------------------------------------------------------------------------------------------
                         Average    Avg   Evap  Exfil     Maximum    Max    Time of Max    Maximum
                          Volume   Pcnt   Pcnt   Pcnt      Volume   Pcnt     Occurrence    Outflow
  Storage Unit          1000 ftł   Full   Loss   Loss    1000 ftł   Full    days hr:min        CFS
  ------------------------------------------------------------------------------------------------
  LIFT_STAT1               1.782   47.5    0.0    0.0       2.110   56.3       0  00:03     198.66
  POND_A1                330.321   27.6    0.0    0.0     426.001   35.5       0  12:33     516.30
  POND_A2                  1.090    0.4    0.0    0.0       9.968    3.7       0  12:19       2.50
  POND_B                 329.883   33.5    0.0    0.0     477.562   48.6       0  12:36     173.24
  POND_C                 196.230   32.8    0.0    0.0     282.542   47.2       0  12:42      47.02
  POND_D                 343.143   19.1    0.0    0.0     577.056   32.2       0  12:50      36.68
  POND_E                  93.511   28.7    0.0    0.0     137.971   42.4       0  12:51     105.85
  POND_F                 270.498   94.5    0.0    0.0     286.204  100.0       0  12:07       9.31
  ST-203LS                 0.040    7.0    0.0    0.0       0.128   22.7       0  12:08       1.70
  STOR-60                  0.012    0.0    0.0    0.0       0.368    0.4       0  12:07       6.60
  STOR-61                  0.815    0.3    0.0    0.0       9.800    4.1       0  12:13       6.03
  STOR-62                  0.101    0.2    0.0    0.0       1.869    3.1       0  12:10       5.01
  STOR-83                  1.048   48.5    0.0    0.0       1.289   59.7       0  12:26      51.21
  STOR-84                  0.000    0.0    0.0    0.0       0.000    0.0       0  00:00       0.00
  
  
  ***********************
  Outfall Loading Summary
  ***********************
  
  -----------------------------------------------------------
                         Flow       Avg       Max       Total
                         Freq      Flow      Flow      Volume
  Outfall Node           Pcnt       CFS       CFS    10^6 gal
  -----------------------------------------------------------
  OFALL-11              91.38      2.99    158.05       3.371
  OFALL-12              36.63      1.84     56.62       0.759
  OFALL-3                4.85     53.87   1465.03       4.750
  -----------------------------------------------------------
  System                44.29     58.71   1465.03       8.880
  
  
  ********************
  Link Flow Summary
  ********************
  
  -----------------------------------------------------------------------------
                                 Maximum  Time of Max   Maximum    Max/    Max/
                                  |Flow|   Occurrence   |Veloc|    Full    Full
  Link                 Type          CFS  days hr:min    ft/sec    Flow   Depth
  -----------------------------------------------------------------------------
  CDT-142              CONDUIT   1465.03     0  00:00     16.76    0.88    1.00
  CDT-143              CONDUIT    116.29     0  00:03     14.80    2.37    1.00
  CDT-145              CONDUIT    263.83     0  00:01     19.07    1.99    1.00
  CDT-146              CONDUIT    126.47     0  00:00     13.48    8.69    1.00
  CDT-147              CONDUIT    173.24     0  00:04      4.42    0.10    1.00
  CDT-148              CONDUIT     42.95     0  00:09      3.44    0.36    1.00
  CDT-149              CONDUIT     47.02     0  12:24      2.96    0.27    1.00
  CDT-150              CONDUIT     84.85     0  12:08      5.35    0.52    1.00
  CDT-151              CONDUIT     41.29     0  12:53      4.46    0.84    0.92
  CDT-152              CONDUIT     41.29     0  12:53      2.60    0.23    1.00
  CDT-153              CONDUIT     41.14     0  00:03     12.34    0.22    0.82
  CDT-163              CONDUIT    516.30     0  00:00     15.80    8.66    1.00
  CDT-167              CONDUIT      1.86     0  12:03      8.37    0.23    0.33
  CDT-186              CONDUIT      2.50     0  12:19      4.24    0.47    0.49
  CDT-187              CONDUIT      2.50     0  12:19      5.93    0.25    0.38
  CDT-188              CONDUIT      2.50     0  12:20      4.26    0.47    0.48
  CDT-189              CONDUIT      2.50     0  12:20      4.25    0.47    0.48
  CDT-190              CONDUIT    112.41     0  00:00      8.35    1.31    1.00
  CDT-191              CONDUIT     19.00     0  12:03      8.27    0.56    1.00
  CDT-193              CONDUIT     47.45     0  12:05      6.71    1.09    1.00
  CDT-194              CONDUIT     71.57     0  12:11      6.31    1.34    1.00
  CDT-202              CONDUIT      0.00     0  00:00      0.00    0.00    0.00
  CDT-227              CONDUIT    500.65     0  00:01     19.45    1.45    1.00
  CDT-229              CONDUIT     56.62     0  12:06      9.09    1.38    0.83
  CDT-230              CONDUIT    366.87     0  00:01     10.39    1.03    1.00
  CDT-246              CONDUIT     56.80     0  00:03     12.52    0.10    1.00
  CDT-247              CONDUIT     53.53     0  00:03     14.40    0.09    1.00
  CDT-248              CONDUIT     52.47     0  00:03     14.78    0.09    1.00
  CDT-265              CONDUIT      2.81     0  12:03      7.38    0.51    0.51
  CDT-266              CONDUIT      9.35     0  12:05      3.83    0.27    1.00
  CDT-267              CONDUIT      7.08     0  12:05      4.03    0.41    1.00
  CDT-64               CHANNEL      6.03     0  12:13      0.99    0.01    0.14
  CDT-65               CHANNEL      6.60     0  12:07      1.04    0.02    0.15
  CDT-66               CHANNEL      5.01     0  12:10      0.81    0.02    0.13
  PROPOSE_1            CONDUIT      3.29     0  12:03      4.75    0.60    0.56
  PROPOSE_100          CONDUIT      5.36     0  12:09      6.12    0.80    1.00
  PROPOSE_101          CONDUIT     11.59     0  12:05      9.45    1.73    1.00
  PROPOSE_102          CONDUIT     14.96     0  12:05      8.52    1.81    1.00
  PROPOSE_103          CONDUIT      0.87     0  12:03      3.24    0.16    0.29
  PROPOSE_104          CONDUIT      4.83     0  12:03     12.56    0.27    0.36
  PROPOSE_107          CONDUIT      5.61     0  12:03      8.45    0.56    1.00
  PROPOSE_108          CONDUIT      0.95     0  12:03      1.99    0.17    0.77
  PROPOSE_110          CONDUIT     76.16     0  12:11      6.57    1.36    1.00
  PROPOSE_111          CONDUIT      4.22     0  12:03      9.29    0.43    0.68
  PROPOSE_113          CONDUIT      2.79     0  12:02      4.70    0.11    0.72
  PROPOSE_114-1        CONDUIT      1.76     0  15:35     21.92    0.92    1.00
  PROPOSE_116          CONDUIT      6.44     0  12:03      9.76    0.56    1.00
  PROPOSE_117          CONDUIT      5.21     0  12:03      7.60    0.33    1.00
  PROPOSE_119          CONDUIT      7.89     0  12:03      9.40    0.76    0.73
  PROPOSE_120          CONDUIT      2.82     0  12:05      2.35    0.28    1.00
  PROPOSE_121          CONDUIT     33.43     0  12:05     10.64    1.00    1.00
  PROPOSE_122          CONDUIT      2.19     0  12:03      3.69    0.30    0.54
  PROPOSE_123          CONDUIT     20.20     0  12:03     13.65    0.56    0.56
  PROPOSE_124          CONDUIT     27.56     0  12:05     15.59    1.72    1.00
  PROPOSE_125          CONDUIT     13.03     0  12:03     10.72    0.81    0.75
  PROPOSE_128          CONDUIT     90.22     0  12:09      6.23    1.28    1.00
  PROPOSE_129          CONDUIT     23.11     0  12:05     13.08    1.44    1.00
  PROPOSE_130          CONDUIT     17.87     0  12:05     14.56    1.75    1.00
  PROPOSE_131          CONDUIT      4.97     0  12:03      9.97    0.43    0.47
  PROPOSE_133          CONDUIT      8.07     0  12:05      7.54    0.82    1.00
  PROPOSE_134          CONDUIT     18.65     0  12:05     10.55    1.13    1.00
  PROPOSE_135          CONDUIT      2.39     0  12:06      4.18    0.20    1.00
  PROPOSE_136          CONDUIT      2.76     0  12:06      2.35    0.07    0.77
  PROPOSE_137          CONDUIT      5.96     0  12:12      2.54    0.28    0.88
  PROPOSE_138          CONDUIT     10.36     0  12:12      3.16    0.49    0.97
  PROPOSE_139          CONDUIT     15.22     0  12:05      3.26    0.49    0.92
  PROPOSE_140          CONDUIT     19.54     0  12:05      3.71    0.62    0.99
  PROPOSE_141          CONDUIT     21.02     0  12:12      3.62    0.68    1.00
  PROPOSE_143          CONDUIT     26.72     0  12:12      3.55    0.64    0.99
  PROPOSE_144          CONDUIT     40.18     0  12:12      5.16    0.95    1.00
  PROPOSE_145          CONDUIT     43.61     0  12:11      5.42    1.06    1.00
  PROPOSE_146          CONDUIT      1.01     0  12:09      3.96    0.10    0.40
  PROPOSE_147          CONDUIT     45.88     0  12:12      5.58    1.09    1.00
  PROPOSE_148          CONDUIT     46.74     0  12:12      5.53    1.12    1.00
  PROPOSE_149          CONDUIT     50.60     0  12:10      4.96    0.92    1.00
  PROPOSE_150          CONDUIT     62.50     0  12:10      5.94    1.15    1.00
  PROPOSE_152          CONDUIT     63.54     0  12:10      5.81    1.14    1.00
  PROPOSE_153          CONDUIT     68.77     0  12:10      6.16    1.27    1.00
  PROPOSE_154          CONDUIT     73.71     0  12:11      6.42    1.44    1.00
  PROPOSE_155          CONDUIT      7.61     0  12:06      2.68    0.19    1.00
  PROPOSE_155-1        CONDUIT     77.65     0  12:11      6.60    1.43    1.00
  PROPOSE_156          CONDUIT     81.49     0  12:11      5.97    1.07    1.00
  PROPOSE_158          CONDUIT     88.64     0  12:09      6.26    1.23    1.00
  PROPOSE_160          CONDUIT     91.08     0  12:09      6.15    1.33    1.00
  PROPOSE_162          CONDUIT    115.04     0  12:08      7.51    1.80    0.98
  PROPOSE_163          CONDUIT    127.67     0  12:08      8.52    2.11    0.97
  PROPOSE_165          CONDUIT    158.05     0  12:07     10.63    2.27    0.89
  PROPOSE_166          CONDUIT      8.99     0  00:00      2.66    0.12    1.00
  PROPOSE_167          CONDUIT     40.19     0  12:05      8.47    1.73    0.93
  PROPOSE_169          CONDUIT     22.25     0  12:03      5.83    0.67    1.00
  PROPOSE_375          CONDUIT     76.95     0  12:11      6.60    1.41    1.00
  PROPOSE_376          CONDUIT      1.95     0  12:05      7.76    0.27    0.68
  PROPOSE_501          CONDUIT      5.28     0  12:07     13.08    0.54    0.93
  PROPOSE_502          CONDUIT      9.57     0  12:03      8.90    1.00    0.90
  PROPOSE_503          CONDUIT     14.36     0  12:03     10.43    0.87    0.91
  PROPOSE_505          CONDUIT      2.33     0  12:06      4.07    0.24    0.80
  PROPOSE_506          CONDUIT     21.38     0  12:05      6.80    0.71    1.00
  PROPOSE_62           CONDUIT      2.04     0  12:03      1.73    0.12    1.00
  PROPOSE_63           CONDUIT      6.32     0  12:07      9.69    0.53    1.00
  PROPOSE_64           CONDUIT     15.91     0  12:05     12.96    1.59    1.00
  PROPOSE_65           CONDUIT      1.30     0  12:07      4.67    0.08    0.38
  PROPOSE_67           CONDUIT      1.65     0  12:04      1.58    0.11    0.95
  PROPOSE_68           CONDUIT      7.30     0  12:03      6.49    0.55    1.00
  PROPOSE_69           CONDUIT     14.57     0  12:05      8.24    0.90    1.00
  PROPOSE_70           CONDUIT     55.61     0  12:06      8.54    1.70    0.90
  PROPOSE_71           CONDUIT     18.36     0  12:03      5.85    0.54    1.00
  PROPOSE_72           CONDUIT     25.37     0  12:08      4.24    1.09    1.00
  PROPOSE_73           CONDUIT     46.84     0  12:06      6.65    1.44    1.00
  PROPOSE_75           CONDUIT     54.49     0  12:05      7.87    1.62    0.97
  PROPOSE_77           CONDUIT      0.00     0  00:00      0.00    0.00    0.00
  PROPOSE_78           CONDUIT      3.11     0  12:05      4.63    0.35    0.41
  PROPOSE_79           CONDUIT      3.37     0  12:03      4.78    0.62    0.57
  PROPOSE_81           CONDUIT      5.53     0  12:03      5.40    1.07    0.79
  PROPOSE_82           CONDUIT      4.08     0  12:03      7.84    0.41    0.45
  PROPOSE_83           CONDUIT      0.76     0  12:05      4.82    0.08    0.19
  PROPOSE_84           CONDUIT      5.70     0  12:03      8.47    0.57    0.54
  PROPOSE_86           CONDUIT      4.17     0  12:03     10.40    0.30    0.38
  PROPOSE_88           CONDUIT      5.88     0  12:03      8.61    0.59    0.55
  PROPOSE_89           CONDUIT      4.06     0  12:03     10.31    0.29    0.37
  PROPOSE_91           CONDUIT      1.38     0  12:03      3.76    0.14    0.40
  PROPOSE_92           CONDUIT      6.64     0  12:09      8.65    0.66    0.91
  PROPOSE_93           CONDUIT      6.87     0  12:06      7.83    0.69    0.93
  PROPOSE_94           CONDUIT     14.06     0  12:09      8.06    1.70    1.00
  PROPOSE_95           CONDUIT      5.06     0  12:03      8.26    0.50    0.79
  PROPOSE_96           CONDUIT      6.43     0  12:03      8.79    0.64    0.95
  PROPOSE_97           CONDUIT      1.65     0  12:09      3.49    0.15    0.58
  PROPOSE_98           CONDUIT      2.90     0  12:05      6.96    0.29    0.80
  PROPOSE_99           CONDUIT      3.72     0  12:03      9.83    0.26    0.40
  PROPOSE_CB504        CONDUIT      1.39     0  12:07      3.94    0.14    0.62
  PUMP-1               PUMP        56.80     0  00:01              1.00
  PUMP-2               PUMP        53.47     0  00:02              1.00
  PUMP-3               PUMP         0.00     0  00:00              0.00
  PUMP-9               PUMP         1.70     0  09:58              1.00
  WEIR-1               WEIR        72.64     0  00:00                      0.50
  
  
  ***************************
  Flow Classification Summary
  ***************************
  
  -------------------------------------------------------------------------------------
                      Adjusted    ---------- Fraction of Time in Flow Class ---------- 
                       /Actual         Up    Down  Sub   Sup   Up    Down  Norm  Inlet 
  Conduit               Length    Dry  Dry   Dry   Crit  Crit  Crit  Crit  Ltd   Ctrl  
  -------------------------------------------------------------------------------------
  CDT-142                38.28   0.00  0.00  0.00  1.00  0.00  0.00  0.00  0.00  0.00
  CDT-143                15.71   0.00  0.00  0.00  1.00  0.00  0.00  0.00  0.00  0.00
  CDT-145                 1.97   0.00  0.00  0.00  1.00  0.00  0.00  0.00  0.00  0.00
  CDT-146                 1.00   0.00  0.00  0.00  1.00  0.00  0.00  0.00  0.00  0.00
  CDT-147                 2.67   0.00  0.00  0.00  1.00  0.00  0.00  0.00  0.00  0.00
  CDT-148                 1.00   0.00  0.00  0.00  1.00  0.00  0.00  0.00  0.00  0.00
  CDT-149                 1.00   0.00  0.00  0.00  1.00  0.00  0.00  0.00  0.00  0.00
  CDT-150                 1.00   0.00  0.00  0.00  1.00  0.00  0.00  0.00  0.00  0.00
  CDT-151                 1.00   0.00  0.00  0.00  1.00  0.00  0.00  0.00  0.00  0.00
  CDT-152                 1.28   0.00  0.00  0.00  1.00  0.00  0.00  0.00  0.00  0.00
  CDT-153                 8.48   0.00  0.15  0.00  0.84  0.00  0.00  0.00  0.00  0.00
  CDT-163                 1.00   0.00  0.00  0.00  1.00  0.00  0.00  0.00  0.00  0.00
  CDT-167                 3.06   0.09  0.00  0.00  0.00  0.00  0.00  0.91  0.00  0.00
  CDT-186                 1.97   0.12  0.00  0.00  0.00  0.00  0.00  0.88  0.00  0.00
  CDT-187                 3.72   0.12  0.00  0.00  0.00  0.02  0.00  0.86  0.01  0.00
  CDT-188                 1.26   0.12  0.00  0.00  0.00  0.00  0.00  0.88  0.00  0.00
  CDT-189                 1.42   0.12  0.00  0.00  0.00  0.00  0.00  0.88  0.00  0.00
  CDT-190                 1.94   0.00  0.00  0.00  1.00  0.00  0.00  0.00  0.00  0.00
  CDT-191                 2.91   0.09  0.00  0.00  0.00  0.00  0.00  0.91  0.00  0.00
  CDT-193                 1.00   0.09  0.00  0.00  0.01  0.00  0.00  0.90  0.00  0.00
  CDT-194                 1.28   0.09  0.00  0.00  0.02  0.00  0.00  0.89  0.00  0.00
  CDT-202                 1.00   1.00  0.00  0.00  0.00  0.00  0.00  0.00  0.00  0.00
  CDT-227                 5.85   0.00  0.00  0.00  1.00  0.00  0.00  0.00  0.00  0.00
  CDT-229                 2.23   0.09  0.00  0.00  0.87  0.04  0.00  0.00  0.00  0.00
  CDT-230                 1.00   0.00  0.00  0.00  1.00  0.00  0.00  0.00  0.00  0.00
  CDT-246                85.16   0.00  0.00  0.00  1.00  0.00  0.00  0.00  0.00  0.00
  CDT-247                85.16   0.00  0.00  0.00  1.00  0.00  0.00  0.00  0.00  0.00
  CDT-248                85.16   0.00  0.00  0.00  1.00  0.00  0.00  0.00  0.00  0.00
  CDT-265                 6.35   0.09  0.00  0.00  0.00  0.00  0.00  0.91  0.00  0.00
  CDT-266                 1.61   0.13  0.00  0.00  0.03  0.02  0.00  0.83  0.04  0.00
  CDT-267                 1.37   0.09  0.03  0.00  0.13  0.08  0.00  0.66  0.21  0.00
  CDT-64                  1.00   0.13  0.00  0.00  0.00  0.00  0.00  0.87  0.00  0.00
  CDT-65                  1.00   0.13  0.00  0.00  0.00  0.00  0.00  0.87  0.00  0.00
  CDT-66                  1.00   0.13  0.00  0.00  0.00  0.00  0.00  0.87  0.00  0.00
  PROPOSE_1               2.04   0.10  0.00  0.00  0.00  0.00  0.00  0.90  0.00  0.00
  PROPOSE_100             3.11   0.13  0.00  0.00  0.00  0.00  0.00  0.87  0.00  0.00
  PROPOSE_101             3.11   0.13  0.00  0.00  0.00  0.00  0.00  0.87  0.00  0.00
  PROPOSE_102             1.11   0.13  0.00  0.00  0.00  0.00  0.00  0.87  0.00  0.00
  PROPOSE_103             2.40   0.10  0.00  0.00  0.00  0.00  0.00  0.90  0.00  0.00
  PROPOSE_104             7.14   0.09  0.00  0.00  0.00  0.00  0.00  0.91  0.00  0.00
  PROPOSE_107             2.03   0.09  0.00  0.00  0.00  0.00  0.00  0.91  0.00  0.00
  PROPOSE_108             1.00   0.13  0.00  0.00  0.01  0.00  0.00  0.87  0.00  0.00
  PROPOSE_110             2.00   0.09  0.00  0.00  0.03  0.00  0.00  0.88  0.00  0.00
  PROPOSE_111             6.81   0.09  0.00  0.00  0.00  0.00  0.00  0.91  0.00  0.00
  PROPOSE_113             4.27   0.13  0.00  0.00  0.00  0.00  0.00  0.87  0.00  0.00
  PROPOSE_114-1           8.45   0.14  0.85  0.00  0.00  0.00  0.01  0.00  0.00  0.00
  PROPOSE_116             3.04   0.10  0.00  0.00  0.00  0.00  0.00  0.90  0.00  0.00
  PROPOSE_117             9.34   0.09  0.00  0.00  0.00  0.00  0.00  0.91  0.00  0.00
  PROPOSE_119             1.74   0.09  0.00  0.00  0.00  0.00  0.00  0.91  0.00  0.00
  PROPOSE_120             4.43   0.15  0.01  0.00  0.00  0.00  0.00  0.83  0.00  0.00
  PROPOSE_121             2.25   0.09  0.00  0.00  0.01  0.01  0.00  0.90  0.00  0.00
  PROPOSE_122             3.61   0.09  0.00  0.00  0.00  0.01  0.00  0.90  0.00  0.00
  PROPOSE_123            13.02   0.09  0.00  0.00  0.00  0.00  0.00  0.91  0.00  0.00
  PROPOSE_124             4.58   0.10  0.00  0.00  0.00  0.00  0.00  0.90  0.00  0.00
  PROPOSE_125             4.58   0.10  0.00  0.00  0.00  0.00  0.00  0.90  0.00  0.00
  PROPOSE_128             2.23   0.09  0.00  0.00  0.14  0.00  0.00  0.78  0.00  0.00
  PROPOSE_129             2.11   0.09  0.00  0.00  0.00  0.00  0.00  0.91  0.00  0.00
  PROPOSE_130             5.86   0.10  0.00  0.00  0.00  0.00  0.00  0.90  0.00  0.00
  PROPOSE_131            10.50   0.09  0.00  0.00  0.00  0.00  0.00  0.91  0.00  0.00
  PROPOSE_133             5.31   0.10  0.00  0.00  0.00  0.00  0.00  0.90  0.00  0.00
  PROPOSE_134             1.45   0.10  0.03  0.00  0.00  0.12  0.00  0.75  0.12  0.00
  PROPOSE_135             4.54   0.13  0.00  0.00  0.00  0.01  0.00  0.85  0.01  0.00
  PROPOSE_136             1.92   0.10  0.00  0.00  0.01  0.01  0.00  0.88  0.01  0.00
  PROPOSE_137             1.00   0.10  0.00  0.00  0.03  0.00  0.00  0.87  0.00  0.00
  PROPOSE_138             1.00   0.10  0.00  0.00  0.03  0.00  0.00  0.87  0.00  0.00
  PROPOSE_139             1.00   0.09  0.00  0.00  0.01  0.00  0.00  0.90  0.00  0.00
  PROPOSE_140             1.64   0.09  0.00  0.00  0.01  0.00  0.00  0.90  0.00  0.00
  PROPOSE_141             1.00   0.09  0.00  0.00  0.04  0.00  0.00  0.87  0.00  0.00
  PROPOSE_143             1.00   0.09  0.00  0.00  0.20  0.00  0.00  0.71  0.05  0.00
  PROPOSE_144             1.38   0.09  0.00  0.00  0.03  0.00  0.00  0.88  0.00  0.00
  PROPOSE_145             1.15   0.09  0.00  0.00  0.02  0.00  0.00  0.89  0.00  0.00
  PROPOSE_146             6.90   0.13  0.00  0.00  0.00  0.01  0.00  0.85  0.01  0.00
  PROPOSE_147             1.00   0.09  0.00  0.00  0.01  0.00  0.00  0.90  0.00  0.00
  PROPOSE_148             1.00   0.09  0.00  0.00  0.02  0.00  0.00  0.89  0.00  0.00
  PROPOSE_149             2.38   0.09  0.00  0.00  0.11  0.00  0.00  0.80  0.00  0.00
  PROPOSE_150             1.05   0.09  0.00  0.00  0.03  0.00  0.00  0.89  0.00  0.00
  PROPOSE_152             1.23   0.09  0.00  0.00  0.24  0.00  0.00  0.68  0.00  0.00
  PROPOSE_153             1.00   0.09  0.00  0.00  0.01  0.00  0.00  0.90  0.00  0.00
  PROPOSE_154             1.17   0.09  0.00  0.00  0.02  0.00  0.00  0.89  0.00  0.00
  PROPOSE_155             2.74   0.17  0.00  0.00  0.00  0.00  0.00  0.83  0.00  0.00
  PROPOSE_155-1           1.57   0.09  0.00  0.00  0.07  0.00  0.00  0.84  0.00  0.00
  PROPOSE_156             1.00   0.09  0.00  0.00  0.26  0.00  0.00  0.65  0.00  0.00
  PROPOSE_158             1.00   0.09  0.00  0.00  0.04  0.00  0.00  0.87  0.00  0.00
  PROPOSE_160             1.39   0.09  0.00  0.00  0.33  0.00  0.00  0.58  0.00  0.00
  PROPOSE_162             1.00   0.09  0.00  0.00  0.23  0.00  0.00  0.68  0.00  0.00
  PROPOSE_163             1.26   0.09  0.00  0.00  0.26  0.00  0.00  0.65  0.00  0.00
  PROPOSE_165             1.00   0.09  0.00  0.00  0.91  0.00  0.00  0.00  0.00  0.00
  PROPOSE_166             1.33   0.00  0.00  0.00  1.00  0.00  0.00  0.00  0.00  0.00
  PROPOSE_167             1.00   0.09  0.00  0.00  0.00  0.00  0.00  0.91  0.00  0.00
  PROPOSE_169             1.00   0.09  0.00  0.00  0.01  0.09  0.00  0.81  0.10  0.00
  PROPOSE_375             1.00   0.09  0.00  0.00  0.02  0.00  0.00  0.89  0.00  0.00
  PROPOSE_376             1.09   0.09  0.00  0.00  0.00  0.00  0.00  0.91  0.00  0.00
  PROPOSE_501             7.51   0.09  0.00  0.00  0.00  0.00  0.00  0.91  0.00  0.00
  PROPOSE_502             2.48   0.11  0.00  0.00  0.00  0.00  0.00  0.89  0.00  0.00
  PROPOSE_503             2.07   0.09  0.00  0.00  0.00  0.00  0.00  0.91  0.00  0.00
  PROPOSE_505             3.76   0.13  0.00  0.00  0.00  0.01  0.00  0.86  0.00  0.00
  PROPOSE_506             2.35   0.09  0.00  0.00  0.00  0.02  0.00  0.89  0.01  0.00
  PROPOSE_62              2.50   0.17  0.00  0.00  0.00  0.00  0.00  0.83  0.00  0.00
  PROPOSE_63              9.43   0.09  0.00  0.00  0.00  0.00  0.00  0.91  0.00  0.00
  PROPOSE_64              3.29   0.13  0.00  0.00  0.00  0.00  0.00  0.87  0.00  0.00
  PROPOSE_65              6.30   0.17  0.00  0.00  0.00  0.00  0.00  0.83  0.00  0.00
  PROPOSE_67              2.82   0.17  0.00  0.00  0.00  0.00  0.00  0.83  0.00  0.00
  PROPOSE_68             10.10   0.09  0.00  0.00  0.00  0.04  0.00  0.88  0.02  0.00
  PROPOSE_69              2.18   0.09  0.00  0.00  0.00  0.01  0.00  0.91  0.00  0.00
  PROPOSE_70              1.00   0.09  0.00  0.00  0.00  0.00  0.00  0.91  0.00  0.00
  PROPOSE_71              2.68   0.09  0.00  0.00  0.01  0.20  0.00  0.70  0.19  0.00
  PROPOSE_72              1.00   0.09  0.00  0.00  0.06  0.00  0.00  0.85  0.00  0.00
  PROPOSE_73              1.00   0.09  0.00  0.00  0.02  0.00  0.00  0.89  0.00  0.00
  PROPOSE_75              1.00   0.09  0.00  0.00  0.00  0.00  0.00  0.91  0.00  0.00
  PROPOSE_77              1.95   1.00  0.00  0.00  0.00  0.00  0.00  0.00  0.00  0.00
  PROPOSE_78              1.06   0.13  0.00  0.00  0.00  0.00  0.00  0.87  0.00  0.00
  PROPOSE_79              3.60   0.10  0.00  0.00  0.00  0.00  0.00  0.90  0.00  0.00
  PROPOSE_81              1.34   0.10  0.00  0.00  0.00  0.00  0.00  0.90  0.00  0.00
  PROPOSE_82              2.34   0.09  0.00  0.00  0.00  0.00  0.00  0.91  0.00  0.00
  PROPOSE_83              1.29   0.13  0.00  0.00  0.00  0.00  0.00  0.87  0.00  0.00
  PROPOSE_84              2.34   0.09  0.00  0.00  0.00  0.00  0.00  0.91  0.00  0.00
  PROPOSE_86              5.96   0.09  0.00  0.00  0.00  0.00  0.00  0.91  0.00  0.00
  PROPOSE_88              1.86   0.10  0.00  0.00  0.00  0.00  0.00  0.90  0.00  0.00
  PROPOSE_89              5.96   0.09  0.00  0.00  0.00  0.00  0.00  0.91  0.00  0.00
  PROPOSE_91              5.42   0.13  0.00  0.00  0.00  0.01  0.00  0.86  0.01  0.00
  PROPOSE_92              5.80   0.13  0.00  0.00  0.00  0.00  0.00  0.87  0.00  0.00
  PROPOSE_93              4.14   0.13  0.00  0.00  0.00  0.01  0.00  0.87  0.00  0.00
  PROPOSE_94              1.37   0.13  0.00  0.00  0.00  0.00  0.00  0.87  0.00  0.00
  PROPOSE_95              2.27   0.09  0.00  0.00  0.00  0.00  0.00  0.91  0.00  0.00
  PROPOSE_96              4.83   0.09  0.00  0.00  0.00  0.00  0.00  0.91  0.00  0.00
  PROPOSE_97              3.72   0.10  0.00  0.00  0.00  0.01  0.00  0.89  0.01  0.00
  PROPOSE_98              1.57   0.13  0.00  0.00  0.00  0.00  0.00  0.87  0.00  0.00
  PROPOSE_99              2.49   0.09  0.00  0.00  0.00  0.00  0.00  0.91  0.00  0.00
  PROPOSE_CB504           3.02   0.13  0.00  0.00  0.00  0.01  0.00  0.85  0.01  0.00
  
  
  *************************
  Conduit Surcharge Summary
  *************************
  
  ----------------------------------------------------------------------------
                                                           Hours        Hours 
                         --------- Hours Full --------   Above Full   Capacity
  Conduit                Both Ends  Upstream  Dnstream   Normal Flow   Limited
  ----------------------------------------------------------------------------
  CDT-142                    71.99     71.99     72.00      0.01         0.04
  CDT-143                    71.94     71.94     71.99      3.11         3.10
  CDT-145                    71.98     71.98     71.98      0.02         0.22
  CDT-146                    71.99     71.99     71.99      3.15         3.09
  CDT-147                     0.01      0.01     72.00      0.01         0.01
  CDT-148                     2.16      2.16     60.04      0.01         0.01
  CDT-149                     2.15      2.15     60.05      0.01         0.01
  CDT-150                     2.06      2.06     60.04      0.01         0.01
  CDT-151                     0.01      0.01     60.75      0.01         0.01
  CDT-152                     3.44      3.44     60.06      0.01         0.01
  CDT-153                     0.01      0.01      1.47      0.01         0.01
  CDT-163                    71.96     72.00     71.96      0.05         0.55
  CDT-190                    72.00     72.00     72.00      0.01        50.67
  CDT-191                     0.01      0.01      0.06      0.01         0.01
  CDT-193                     0.03      0.04      0.04      0.06         0.02
  CDT-194                     0.05      0.05      0.05      0.15         0.04
  CDT-227                    71.97     71.97     71.98      0.01         0.12
  CDT-229                     0.01      0.01      0.01      0.10         0.01
  CDT-230                    71.95     71.96     71.97      0.01         0.01
  CDT-246                    71.93     71.94     71.94      0.01         0.01
  CDT-247                    71.93     71.94     71.94      0.01         0.01
  CDT-248                    71.94     71.94     71.94      0.01         0.01
  CDT-266                     0.01      0.01      0.11      0.01         0.01
  CDT-267                     0.04      0.04      0.14      0.01         0.01
  PROPOSE_100                 0.03      0.03      0.04      0.01         0.01
  PROPOSE_101                 0.08      0.11      0.09      0.10         0.05
  PROPOSE_102                 0.10      0.16      0.10      0.19         0.10
  PROPOSE_107                 0.01      0.01      0.03      0.01         0.01
  PROPOSE_110                 0.06      0.06      0.06      0.18         0.06
  PROPOSE_114-1               0.05      0.05     62.03      0.01         0.01
  PROPOSE_116                 0.01      0.01      0.05      0.01         0.01
  PROPOSE_117                 0.07      0.07      0.08      0.01         0.01
  PROPOSE_120                 0.05      0.05      0.08      0.01         0.01
  PROPOSE_121                 0.14      0.14      0.27      0.01         0.01
  PROPOSE_124                 0.18      0.18      0.21      0.10         0.09
  PROPOSE_128                 0.03      0.04      0.03      0.14         0.03
  PROPOSE_129                 0.08      0.08      0.08      0.09         0.08
  PROPOSE_130                 0.09      0.09      0.10      0.11         0.08
  PROPOSE_133                 0.04      0.04      0.05      0.01         0.01
  PROPOSE_134                 0.08      0.08      0.13      0.05         0.06
  PROPOSE_135                 0.03      0.03      0.06      0.01         0.01
  PROPOSE_138                 0.01      0.01      0.02      0.01         0.01
  PROPOSE_140                 0.01      0.01      0.01      0.01         0.01
  PROPOSE_141                 0.03      0.03      0.05      0.01         0.01
  PROPOSE_143                 0.01      0.01      0.03      0.01         0.01
  PROPOSE_144                 0.04      0.04      0.04      0.01         0.01
  PROPOSE_145                 0.05      0.05      0.05      0.07         0.03
  PROPOSE_147                 0.06      0.06      0.06      0.09         0.03
  PROPOSE_148                 0.06      0.07      0.06      0.09         0.04
  PROPOSE_149                 0.03      0.03      0.03      0.01         0.01
  PROPOSE_150                 0.04      0.04      0.04      0.08         0.01
  PROPOSE_152                 0.05      0.05      0.05      0.08         0.01
  PROPOSE_153                 0.05      0.05      0.05      0.15         0.03
  PROPOSE_154                 0.06      0.06      0.06      0.20         0.05
  PROPOSE_155                 0.01      0.01      0.05      0.01         0.01
  PROPOSE_155-1               0.07      0.07      0.07      0.19         0.06
  PROPOSE_156                 0.03      0.04      0.03      0.07         0.03
  PROPOSE_158                 0.03      0.04      0.03      0.13         0.03
  PROPOSE_160                 0.04      0.04      0.04      0.16         0.04
  PROPOSE_162                 0.01      0.05      0.01      0.29         0.01
  PROPOSE_163                 0.01      0.01      0.01      0.36         0.01
  PROPOSE_165                 0.01      0.01      0.01      0.36         0.01
  PROPOSE_166                60.58     60.58     60.58      0.01         2.22
  PROPOSE_167                 0.01      0.05      0.01      0.11         0.01
  PROPOSE_169                 0.01      0.01      0.07      0.01         0.01
  PROPOSE_375                 0.06      0.07      0.06      0.19         0.06
  PROPOSE_376                 0.01      0.01      0.08      0.01         0.01
  PROPOSE_501                 0.01      0.01      0.01      0.01         0.01
  PROPOSE_502                 0.01      0.01      0.01      0.01         0.01
  PROPOSE_503                 0.01      0.01      0.02      0.01         0.01
  PROPOSE_506                 0.06      0.06      0.10      0.01         0.01
  PROPOSE_62                  0.01      0.01      0.06      0.01         0.01
  PROPOSE_63                  0.01      0.01      0.02      0.01         0.01
  PROPOSE_64                  0.11      0.12      0.13      0.10         0.08
  PROPOSE_67                  0.01      0.01      0.04      0.01         0.01
  PROPOSE_68                  0.07      0.07      0.09      0.01         0.01
  PROPOSE_69                  0.04      0.04      0.07      0.01         0.01
  PROPOSE_70                  0.01      0.01      0.01      0.13         0.01
  PROPOSE_71                  0.07      0.07      0.11      0.01         0.01
  PROPOSE_72                  0.03      0.03      0.03      0.04         0.01
  PROPOSE_73                  0.03      0.04      0.03      0.11         0.02
  PROPOSE_75                  0.01      0.04      0.01      0.13         0.01
  PROPOSE_81                  0.01      0.01      0.01      0.05         0.01
  PROPOSE_93                  0.01      0.01      0.01      0.01         0.01
  PROPOSE_94                  0.02      0.12      0.02      0.36         0.02
  PROPOSE_95                  0.01      0.01      0.02      0.01         0.01
  PROPOSE_96                  0.01      0.01      0.01      0.01         0.01
  PROPOSE_98                  0.01      0.01      0.03      0.01         0.01
  
  
  ***************
  Pumping Summary
  ***************
  
  ---------------------------------------------------------------------------------------------------------
                                                  Min       Avg       Max     Total     Power    % Time Off
                        Percent   Number of      Flow      Flow      Flow    Volume     Usage    Pump Curve
  Pump                 Utilized   Start-Ups       CFS       CFS       CFS  10^6 gal     Kw-hr    Low   High
  ---------------------------------------------------------------------------------------------------------
  PUMP-1                   4.31           5      0.00     53.12     56.80     4.447    202.05    0.0    0.6
  PUMP-2                   0.05           4      0.00     44.95     53.47     0.045      3.25    0.0   42.7
  PUMP-3                   0.00           0      0.00      0.00      0.00     0.000      0.00    0.0    0.0
  PUMP-9                   1.39          45      0.00      1.70      1.70     0.046      5.06    0.0    9.9
  

  Analysis begun on:  Tue Jun 23 21:19:41 2026
  Analysis ended on:  Tue Jun 23 21:19:46 2026
  Total elapsed time: 00:00:05