
  EPA STORM WATER MANAGEMENT MODEL - VERSION 5.2 (Build 5.2.4)
  ------------------------------------------------------------

  
  ERROR 305: cannot open report file.at line 114 of [LID_USAGE] section:
  Sub1             InfiltrationSys  5       1          0          0          5.1        0          "D:\2018\Download-2018\Sub1_RWT.txt"


  Analysis begun on:  Tue Jun 23 21:19:47 2026
  Analysis ended on:  Tue Jun 23 21:19:47 2026
  Total elapsed time: < 1 sec