
  EPA STORM WATER MANAGEMENT MODEL - VERSION 5.2 (Build 5.2.4)
  ------------------------------------------------------------

  WARNING 04: minimum elevation drop used for Conduit SMAIN1484
  WARNING 04: minimum elevation drop used for Conduit SMAIN1486
  WARNING 04: minimum elevation drop used for Conduit SMAIN1910
  WARNING 04: minimum elevation drop used for Conduit SMAIN1912
  WARNING 04: minimum elevation drop used for Conduit SMAIN1913
  WARNING 04: minimum elevation drop used for Conduit SMAIN1914
  WARNING 04: minimum elevation drop used for Conduit SMAIN1915
  WARNING 04: minimum elevation drop used for Conduit SMAIN1916
  WARNING 04: minimum elevation drop used for Conduit SMAIN1922
  WARNING 04: minimum elevation drop used for Conduit SMAIN1924
  WARNING 04: minimum elevation drop used for Conduit SMAIN1931
  WARNING 04: minimum elevation drop used for Conduit SMAIN1932
  WARNING 04: minimum elevation drop used for Conduit SMAIN1935
  WARNING 04: minimum elevation drop used for Conduit SMAIN1936
  WARNING 04: minimum elevation drop used for Conduit SMAIN1939
  WARNING 04: minimum elevation drop used for Conduit SMAIN1947
  WARNING 04: minimum elevation drop used for Conduit SMAIN1954
  WARNING 04: minimum elevation drop used for Conduit SMAIN1955
  WARNING 04: minimum elevation drop used for Conduit SMAIN1956
  WARNING 04: minimum elevation drop used for Conduit SMAIN1957
  WARNING 04: minimum elevation drop used for Conduit SMAIN1958
  WARNING 04: minimum elevation drop used for Conduit SMAIN1959
  WARNING 04: minimum elevation drop used for Conduit SMAIN1960
  WARNING 04: minimum elevation drop used for Conduit SMAIN1961
  WARNING 04: minimum elevation drop used for Conduit SMAIN1962
  WARNING 04: minimum elevation drop used for Conduit SMAIN1963
  WARNING 04: minimum elevation drop used for Conduit SMAIN1969
  WARNING 04: minimum elevation drop used for Conduit SMAIN1970
  WARNING 04: minimum elevation drop used for Conduit SMAIN1972
  WARNING 04: minimum elevation drop used for Conduit SMAIN1973
  WARNING 04: minimum elevation drop used for Conduit SMAIN1978
  WARNING 04: minimum elevation drop used for Conduit SMAIN1982
  WARNING 04: minimum elevation drop used for Conduit SMAIN1983
  WARNING 04: minimum elevation drop used for Conduit SMAIN1984
  WARNING 04: minimum elevation drop used for Conduit SMAIN1985
  WARNING 04: minimum elevation drop used for Conduit SMAIN2003
  WARNING 04: minimum elevation drop used for Conduit SMAIN2005
  WARNING 04: minimum elevation drop used for Conduit SMAIN2006
  WARNING 04: minimum elevation drop used for Conduit SMAIN2008
  WARNING 04: minimum elevation drop used for Conduit SMAIN2018
  WARNING 04: minimum elevation drop used for Conduit SMAIN2025
  WARNING 04: minimum elevation drop used for Conduit SMAIN2027
  WARNING 04: minimum elevation drop used for Conduit SMAIN2037
  WARNING 04: minimum elevation drop used for Conduit SMAIN3317
  WARNING 04: minimum elevation drop used for Conduit SMAIN3319
  WARNING 04: minimum elevation drop used for Conduit SMAIN3320
  WARNING 04: minimum elevation drop used for Conduit SMAIN3321
  WARNING 04: minimum elevation drop used for Conduit SMAIN3322
  WARNING 04: minimum elevation drop used for Conduit SMAIN3324
  WARNING 04: minimum elevation drop used for Conduit SMAIN3325
  WARNING 04: minimum elevation drop used for Conduit SMAIN3337
  WARNING 04: minimum elevation drop used for Conduit SMAIN3340
  WARNING 04: minimum elevation drop used for Conduit SMAIN3341
  WARNING 04: minimum elevation drop used for Conduit SMAIN3344
  WARNING 04: minimum elevation drop used for Conduit SMAIN3345
  WARNING 04: minimum elevation drop used for Conduit SMAIN3346
  WARNING 04: minimum elevation drop used for Conduit SMAIN3350
  WARNING 04: minimum elevation drop used for Conduit SMAIN3352
  WARNING 04: minimum elevation drop used for Conduit SMAIN3353
  WARNING 04: minimum elevation drop used for Conduit SMAIN3354
  WARNING 04: minimum elevation drop used for Conduit SMAIN3356
  WARNING 04: minimum elevation drop used for Conduit SMAIN3406
  
  ****************
  Analysis Options
  ****************
  Flow Units ............... GPM
  Process Models:
    Rainfall/Runoff ........ NO
    RDII ................... NO
    Snowmelt ............... NO
    Groundwater ............ NO
    Flow Routing ........... YES
    Ponding Allowed ........ YES
    Water Quality .......... NO
  Flow Routing Method ...... DYNWAVE
  Surcharge Method ......... EXTRAN
  Starting Date ............ 07/01/2008 00:00:00
  Ending Date .............. 07/02/2008 23:00:00
  Antecedent Dry Days ...... 5.0
  Report Time Step ......... 01:00:00
  Routing Time Step ........ 9.00 sec
  Variable Time Step ....... YES
  Maximum Trials ........... 8
  Number of Threads ........ 1
  Head Tolerance ........... 0.005000 ft
  
  
  **************************        Volume        Volume
  Flow Routing Continuity        acre-feet      10^6 gal
  **************************     ---------     ---------
  Dry Weather Inflow .......        91.718        29.888
  Wet Weather Inflow .......         0.000         0.000
  Groundwater Inflow .......         0.000         0.000
  RDII Inflow ..............         0.000         0.000
  External Inflow ..........         0.000         0.000
  External Outflow .........        84.335        27.482
  Flooding Loss ............         4.862         1.584
  Evaporation Loss .........         0.000         0.000
  Exfiltration Loss ........         0.000         0.000
  Initial Stored Volume ....         0.061         0.020
  Final Stored Volume ......         1.382         0.450
  Continuity Error (%) .....         1.308
  
  
  *************************
  Highest Continuity Errors
  *************************
  Node SRED1 (19.84%)
  Node SVAL163 (17.51%)
  Node SVAL184 (8.05%)
  Node SVAL124 (7.79%)
  Node SVAL127 (6.04%)
  
  
  ***************************
  Time-Step Critical Elements
  ***************************
  Link SMAIN1915 (2.23%)
  Link SMAIN1931 (1.37%)
  Link SMAIN1910 (1.24%)
  
  
  ********************************
  Highest Flow Instability Indexes
  ********************************
  Link SMAIN3302 (90)
  Link SMAIN2022 (87)
  Link SMAIN3362 (85)
  Link SMAIN3406 (81)
  Link SMAIN1485 (79)
  
  
  *********************************
  Most Frequent Nonconverging Nodes
  *********************************
  Node SINF1 (93.49%)
  Node SPJ147 (76.62%)
  Node SPJ136 (76.60%)
  Node SRED10 (76.40%)
  Node STTC15 (75.96%)
  
  
  *************************
  Routing Time Step Summary
  *************************
  Minimum Time Step           :     0.50 sec
  Average Time Step           :     8.56 sec
  Maximum Time Step           :     9.00 sec
  % of Time in Steady State   :     0.00
  Average Iterations per Step :     7.97
  % of Steps Not Converging   :    93.49
  Time Step Frequencies       :
      9.000 -  5.049 sec      :    93.04 %
      5.049 -  2.832 sec      :     4.32 %
      2.832 -  1.589 sec      :     1.69 %
      1.589 -  0.891 sec      :     0.56 %
      0.891 -  0.500 sec      :     0.39 %
  
  
  ******************
  Node Depth Summary
  ******************
  
  ---------------------------------------------------------------------------------
                                 Average  Maximum  Maximum  Time of Max    Reported
                                   Depth    Depth      HGL   Occurrence   Max Depth
  Node                 Type         Feet     Feet     Feet  days hr:min        Feet
  ---------------------------------------------------------------------------------
  SEND1                JUNCTION     0.00     0.00    61.00     0  00:00        0.00
  SEND10               JUNCTION     0.17     0.17    31.17     0  00:00        0.17
  SEND11               JUNCTION     0.00     0.00    21.00     0  00:00        0.00
  SEND12               JUNCTION   234.94   458.81   539.81     1  09:00      458.76
  SEND13               JUNCTION     0.00     0.00    66.16     0  00:00        0.00
  SEND3                JUNCTION     0.00     0.00    41.00     0  00:00        0.00
  SEND4                JUNCTION     0.00     0.00    41.00     0  00:00        0.00
  SEND5                JUNCTION     0.00     0.00    41.00     0  00:00        0.00
  SEND6                JUNCTION     0.00     0.00    16.15     0  00:00        0.00
  SEND7                JUNCTION     0.00     0.00    27.33     0  00:00        0.00
  SEND8                JUNCTION     0.00     0.00    66.00     0  00:00        0.00
  SEND9                JUNCTION   406.80   475.41   506.41     1  09:05      475.41
  SFL1                 JUNCTION   257.87   495.09   571.09     1  09:00      495.08
  SFL2                 JUNCTION   268.36   456.43   477.43     1  09:00      456.31
  SFL3                 JUNCTION     0.00     0.00    21.00     0  00:00        0.00
  SMH1330              JUNCTION     4.00     4.00    79.60     0  00:00        4.00
  SMH1653              JUNCTION     0.00     0.00    56.85     0  00:00        0.00
  SMH1696              JUNCTION     0.00     0.00    76.00     0  00:00        0.00
  SMH1731              JUNCTION     0.00     0.00    51.00     0  00:00        0.00
  SMH2033              JUNCTION     0.00     0.00    43.92     0  00:00        0.00
  SMH2102              JUNCTION     0.00     0.00    12.34     0  00:00        0.00
  SMH2386              JUNCTION     0.00     0.00    66.00     0  00:00        0.00
  SPJ106               JUNCTION    11.98    26.84    68.94     1  07:46       26.81
  SPJ112               JUNCTION   138.67   298.15   304.15     1  08:00      298.15
  SPJ113               JUNCTION   279.78   536.52   597.52     1  08:00      536.51
  SPJ116               JUNCTION   258.13   496.35   571.35     1  09:00      496.35
  SPJ117               JUNCTION   258.04   495.40   571.40     1  09:00      495.40
  SPJ118               JUNCTION   240.41   455.00   516.00     1  09:57      452.69
  SPJ119               JUNCTION   263.90   507.97   583.97     1  09:00      507.96
  SPJ120               JUNCTION   275.83   532.65   610.05     1  09:00      532.64
  SPJ121               JUNCTION    26.73    78.88   157.68     0  07:00       74.40
  SPJ136               JUNCTION   367.43   736.93   806.43     1  08:00      736.92
  SPJ137               JUNCTION   210.61   396.53   459.33     1  09:00      396.53
  SPJ147               JUNCTION   346.74   679.16   749.16     1  08:00      679.14
  SPJ148               JUNCTION   833.66  1004.00  1059.58     0  06:10     1004.00
  SPJ149               JUNCTION   847.87  1004.00  1065.00     0  05:01     1004.00
  SPJ15                JUNCTION   177.10   433.60   454.60     1  08:00      433.60
  SPJ152               JUNCTION   275.66   470.57   491.57     1  09:00      470.56
  SPJ20                JUNCTION    64.99   128.33   154.33     1  08:00      128.33
  SPJ5                 JUNCTION    19.85    25.69    66.69     1  07:59       25.67
  SRED1                JUNCTION   213.87   401.09   462.09     1  09:00      401.09
  SRED10               JUNCTION   350.67   686.70   754.73     1  08:00      686.68
  SRED11               JUNCTION    68.06   171.46   218.05     1  08:00      171.42
  SRED12               JUNCTION     0.00     0.00    47.88     0  00:00        0.00
  SRED13               JUNCTION     0.00     0.00    41.00     0  00:00        0.00
  SRED14               JUNCTION   114.46   253.29   272.16     1  08:00      253.28
  SRED15               JUNCTION     0.00     0.00    21.00     0  00:00        0.00
  SRED16               JUNCTION   829.17   998.42  1039.87     0  14:29      998.40
  SRED17               JUNCTION   271.66   462.47   483.47     1  09:00      462.47
  SRED18               JUNCTION    13.24    17.05    62.87     1  07:59       17.04
  SRED19               JUNCTION    13.47    17.35    62.88     1  07:59       17.31
  SRED2                JUNCTION   209.45   395.02   458.63     1  09:00      395.02
  SRED20               JUNCTION    23.48    33.21    74.21     1  07:59       33.20
  SRED3                JUNCTION    80.26   144.95   190.37     1  08:00      144.95
  SRED4                JUNCTION   121.30   210.39   242.67     1  08:00      210.38
  SRED5                JUNCTION   129.53   221.63   249.05     1  08:00      221.63
  SRED6                JUNCTION   160.02   279.30   310.30     1  09:00      279.30
  SRED7                JUNCTION   166.55   289.33   317.90     1  09:00      289.33
  SRED8                JUNCTION   276.63   533.04   609.04     1  09:00      532.97
  SRED9                JUNCTION   255.24   491.24   567.24     1  09:00      491.20
  STTC1                JUNCTION   247.67   466.99   529.48     1  09:00      466.98
  STTC10               JUNCTION   251.64   485.52   562.52     1  09:00      485.52
  STTC11               JUNCTION   257.88   495.09   571.09     1  09:00      495.09
  STTC12               JUNCTION   276.62   533.02   609.02     1  09:00      532.93
  STTC13               JUNCTION   255.23   491.22   567.22     1  09:00      491.17
  STTC14               JUNCTION   263.77   507.77   583.77     1  09:01      507.71
  STTC15               JUNCTION   345.80   673.56   741.94     1  08:00      673.55
  STTC16               JUNCTION    15.84    21.62    66.64     1  07:59       21.61
  STTC17               JUNCTION    14.93    20.70    66.66     1  07:59       20.68
  STTC18               JUNCTION    92.26   229.19   270.19     1  08:00      229.19
  STTC19               JUNCTION    50.23   113.30   154.30     1  08:00      113.29
  STTC2                JUNCTION   234.94   458.81   539.81     1  09:00      458.76
  STTC20               JUNCTION    45.79   108.46   154.23     1  08:00      108.44
  STTC21               JUNCTION    65.29   165.84   213.64     1  08:00      165.73
  STTC22               JUNCTION     0.00     0.00    34.36     0  00:00        0.00
  STTC23               JUNCTION     0.00     0.00    41.00     0  00:00        0.00
  STTC24               JUNCTION     0.00     0.00    16.02     0  00:00        0.00
  STTC25               JUNCTION   122.20   278.96   299.96     1  08:00      278.95
  STTC26               JUNCTION   829.57   998.81  1039.84     1  19:41      998.78
  STTC28               JUNCTION    11.88    26.68    68.85     1  07:45       26.63
  STTC29               JUNCTION   291.37   475.39   506.39     1  09:05      474.29
  STTC3                JUNCTION   213.87   401.09   462.09     1  09:00      401.09
  STTC30               JUNCTION   823.02   991.79  1022.79     1  17:11      991.78
  STTC31               JUNCTION   221.37   403.64   466.39     1  09:00      403.58
  STTC32               JUNCTION   283.20   466.91   497.91     1  09:04      466.13
  STTC33               JUNCTION   268.36   456.39   477.39     1  09:00      456.31
  STTC34               JUNCTION    13.36    17.19    62.88     1  08:00       17.19
  STTC35               JUNCTION    19.37    26.23    66.63     1  07:59       26.17
  STTC4                JUNCTION   214.31   406.55   472.82     1  09:00      406.54
  STTC5                JUNCTION   210.14   395.00   457.08     1  09:00      395.00
  STTC6                JUNCTION    79.97   144.67   190.37     1  08:00      144.66
  STTC7                JUNCTION    90.80   160.57   200.86     1  08:00      160.57
  STTC8                JUNCTION   204.87   383.63   444.63     1  09:00      383.62
  STTC9                JUNCTION   251.88   485.31   561.31     1  09:00      485.28
  SVAL102              JUNCTION   230.08   448.79   529.79     1  09:00      448.79
  SVAL103              JUNCTION   247.60   467.06   529.76     1  09:00      467.05
  SVAL104              JUNCTION   232.72   445.63   516.63     1  09:00      445.62
  SVAL105              JUNCTION   237.07   462.54   543.54     1  09:00      462.48
  SVAL106              JUNCTION   234.28   457.65   538.65     1  09:00      457.61
  SVAL107              JUNCTION   249.83   473.13   534.13     1  09:00      473.13
  SVAL108              JUNCTION   218.83   419.13   490.13     1  09:00      419.13
  SVAL109              JUNCTION   214.55   407.74   474.90     1  09:00      407.73
  SVAL110              JUNCTION   214.17   401.67   462.67     1  09:00      401.67
  SVAL111              JUNCTION     0.00     0.00    61.00     0  00:00        0.00
  SVAL112              JUNCTION     0.00     0.00    66.23     0  00:00        0.00
  SVAL113              JUNCTION   208.81   393.88   457.69     1  09:00      393.87
  SVAL114              JUNCTION   210.03   395.77   458.98     1  09:00      395.77
  SVAL115              JUNCTION   209.54   394.64   457.64     1  09:00      394.64
  SVAL116              JUNCTION   140.91   244.55   275.55     1  08:00      244.54
  SVAL117              JUNCTION   168.62   293.88   323.38     1  09:00      293.87
  SVAL118              JUNCTION   225.61   405.31   446.31     1  09:00      405.31
  SVAL119              JUNCTION   204.93   383.71   444.71     1  09:00      383.71
  SVAL120              JUNCTION   221.79   391.89   422.89     1  09:00      391.89
  SVAL121              JUNCTION   251.76   485.36   561.36     1  09:00      485.31
  SVAL122              JUNCTION   251.39   485.28   562.58     1  09:00      485.27
  SVAL123              JUNCTION   254.89   490.60   566.60     1  09:00      490.58
  SVAL124              JUNCTION   257.88   495.09   571.09     1  09:00      495.08
  SVAL125              JUNCTION   255.23   491.28   567.28     1  09:00      491.23
  SVAL126              JUNCTION   226.66   439.77   515.77     1  09:56      437.26
  SVAL127              JUNCTION   240.40   454.99   515.99     1  09:57      452.68
  SVAL128              JUNCTION   263.80   507.86   583.86     1  09:01      507.80
  SVAL129              JUNCTION   263.80   507.82   583.82     1  09:01      507.77
  SVAL130              JUNCTION   276.66   533.05   609.05     1  09:00      533.00
  SVAL131              JUNCTION   276.70   533.18   609.18     1  09:00      533.10
  SVAL132              JUNCTION   345.97   673.85   742.13     1  08:00      673.84
  SVAL133              JUNCTION   347.88   676.72   743.60     1  08:00      676.70
  SVAL134              JUNCTION    80.52   145.23   190.38     1  08:00      145.22
  SVAL135              JUNCTION    83.30   148.51   191.28     1  08:00      148.50
  SVAL136              JUNCTION     0.00     0.00    51.00     0  00:00        0.00
  SVAL137              JUNCTION    19.82    25.69    66.69     1  07:59       25.67
  SVAL138              JUNCTION    15.55    21.35    66.67     1  07:59       21.33
  SVAL139              JUNCTION    15.58    21.31    66.56     1  07:59       21.29
  SVAL140              JUNCTION     0.00     0.00    55.83     0  00:00        0.00
  SVAL141              JUNCTION     3.88     4.00    46.37     0  00:33        4.00
  SVAL142              JUNCTION     0.00     0.00    76.00     0  00:00        0.00
  SVAL143              JUNCTION    92.43   229.68   270.68     1  08:00      229.67
  SVAL144              JUNCTION    92.26   229.21   270.21     1  08:00      229.21
  SVAL145              JUNCTION    45.67   108.31   154.19     1  08:00      108.30
  SVAL146              JUNCTION    46.14   108.97   154.53     1  08:00      108.95
  SVAL147              JUNCTION    50.13   113.03   154.03     1  08:00      113.01
  SVAL148              JUNCTION    65.37   166.08   213.90     1  08:00      165.99
  SVAL149              JUNCTION     0.00     0.00    41.00     0  00:00        0.00
  SVAL150              JUNCTION     0.00     0.00    34.34     0  00:00        0.00
  SVAL151              JUNCTION     0.00     0.00    32.39     0  00:00        0.00
  SVAL152              JUNCTION     0.00     0.00    16.10     0  00:00        0.00
  SVAL153              JUNCTION     0.00     0.00    15.87     0  00:00        0.00
  SVAL154              JUNCTION     0.00     0.00    21.00     0  00:00        0.00
  SVAL155              JUNCTION   831.72  1000.74  1031.74     1  07:37     1000.72
  SVAL156              JUNCTION   829.75   999.07  1039.91     0  18:53      999.04
  SVAL157              JUNCTION   829.36   998.59  1039.84     0  19:35      998.57
  SVAL158              JUNCTION     0.00     0.00    21.00     0  00:00        0.00
  SVAL159              JUNCTION    58.42   100.13   141.13     1  08:00      100.13
  SVAL160              JUNCTION    23.64    33.53    74.53     1  08:00       33.53
  SVAL161              JUNCTION   285.34   469.88   525.29     1  09:05      468.77
  SVAL162              JUNCTION   291.44   475.46   506.46     1  09:05      474.37
  SVAL163              JUNCTION   291.37   475.41   506.41     1  09:05      474.29
  SVAL164              JUNCTION   826.81   995.71  1026.71     0  14:16      995.69
  SVAL165              JUNCTION     0.17     0.17    31.17     0  00:00        0.17
  SVAL166              JUNCTION   210.61   390.80   454.04     1  09:00      390.80
  SVAL167              JUNCTION   220.66   402.82   465.90     1  09:00      402.77
  SVAL168              JUNCTION   221.43   403.75   466.42     1  09:00      403.69
  SVAL169              JUNCTION   220.25   401.89   461.38     1  09:00      401.88
  SVAL170              JUNCTION   225.20   407.50   469.65     1  09:00      407.42
  SVAL171              JUNCTION   255.02   438.51   479.51     1  09:01      438.29
  SVAL172              JUNCTION   239.69   422.71   473.16     1  09:00      422.59
  SVAL173              JUNCTION   262.72   446.35   487.35     1  09:02      445.93
  SVAL174              JUNCTION   276.74   461.01   482.01     1  09:01      460.69
  SVAL175              JUNCTION   276.53   460.80   481.80     1  09:01      460.49
  SVAL176              JUNCTION   274.64   458.55   489.55     1  09:02      458.08
  SVAL177              JUNCTION   260.93   444.39   495.39     1  09:03      443.73
  SVAL178              JUNCTION   283.31   467.02   498.02     1  09:04      466.23
  SVAL179              JUNCTION   270.09   459.31   480.31     1  09:00      459.31
  SVAL180              JUNCTION   231.18   415.54   470.37     1  09:00      415.45
  SVAL181              JUNCTION   239.23   424.97   473.17     1  09:00      424.87
  SVAL182              JUNCTION   237.51   423.89   474.89     1  09:00      423.78
  SVAL183              JUNCTION   268.39   456.41   477.41     1  09:00      456.36
  SVAL184              JUNCTION   268.36   456.40   477.40     1  09:00      456.31
  SVAL185              JUNCTION   249.24   437.32   478.32     1  09:00      437.29
  SVAL186              JUNCTION   268.34   456.37   477.37     1  09:00      456.28
  SVAL187              JUNCTION   249.65   438.10   479.10     1  09:00      438.10
  SVAL188              JUNCTION   271.37   461.89   482.89     1  09:00      461.89
  SVAL189              JUNCTION    19.34    26.26    66.74     1  08:00       26.26
  SVAL190              JUNCTION    31.47    43.93    74.23     1  08:00       43.93
  SINF1                OUTFALL      0.29     0.38    57.05     1  08:00        0.38
  SWELL106             STORAGE      5.92     5.92    32.50     0  00:00        5.92
  SWELL112             STORAGE      4.94     4.94     1.36     0  00:00        4.94
  SWELL113             STORAGE      5.07     5.07    54.71     0  00:00        5.07
  SWELL116             STORAGE      6.81     6.81    66.83     0  00:00        6.81
  SWELL117             STORAGE      7.01     7.01    67.95     0  00:00        7.01
  SWELL118             STORAGE      8.07     8.07    67.22     0  00:00        8.07
  SWELL119             STORAGE      6.12     6.12    69.95     0  00:00        6.12
  SWELL120             STORAGE      5.91     5.91    66.42     0  00:00        5.91
  SWELL121             STORAGE      6.08     6.08    70.02     0  00:00        6.08
  SWELL139             STORAGE     12.16    12.16    52.56     0  00:00       12.16
  SWELL15              STORAGE      6.65     6.65     1.27     0  00:00        6.65
  SWELL151             STORAGE      6.63     6.63    63.04     0  00:00        6.63
  SWELL152             STORAGE      6.49     6.49    55.67     0  00:00        6.49
  SWELL153             STORAGE      6.70     6.70    44.99     0  00:00        6.70
  SWELL154             STORAGE      5.86     5.86    46.80     0  00:00        5.86
  SWELL157             STORAGE      7.37     7.37    26.67     0  00:00        7.37
  SWELL20              STORAGE      6.76     6.76    19.47     0  00:00        6.76
  SWELL5               STORAGE      7.34     7.34    37.87     0  00:00        7.34
  
  
  *******************
  Node Inflow Summary
  *******************
  
  -------------------------------------------------------------------------------------------------
                                  Maximum  Maximum                  Lateral       Total        Flow
                                  Lateral    Total  Time of Max      Inflow      Inflow     Balance
                                   Inflow   Inflow   Occurrence      Volume      Volume       Error
  Node                 Type           GPM      GPM  days hr:min    10^6 gal    10^6 gal     Percent
  -------------------------------------------------------------------------------------------------
  SEND1                JUNCTION      0.00     0.00     0  00:00           0           0       0.000 gal
  SEND10               JUNCTION      0.00     0.00     0  00:00           0           0       0.000 gal
  SEND11               JUNCTION      0.00     0.00     0  00:00           0           0       0.000 gal
  SEND12               JUNCTION      0.00     9.50     0  02:14           0      0.0005      25.450
  SEND13               JUNCTION      0.00     0.00     0  00:00           0           0       0.000 gal
  SEND3                JUNCTION      0.00     0.00     0  00:00           0           0       0.000 gal
  SEND4                JUNCTION      0.00     0.00     0  00:00           0           0       0.000 gal
  SEND5                JUNCTION      0.00     0.00     0  00:00           0           0       0.000 gal
  SEND6                JUNCTION      0.00     0.00     0  00:00           0           0       0.000 gal
  SEND7                JUNCTION      0.00     0.00     0  00:00           0           0       0.000 gal
  SEND8                JUNCTION      0.00     0.00     0  00:00           0           0       0.000 gal
  SEND9                JUNCTION      0.00    26.35     0  00:04           0     0.00126       0.000
  SFL1                 JUNCTION      0.00    43.27     0  07:16           0      0.0192      23.925
  SFL2                 JUNCTION      0.00    84.45     0  00:21           0      0.0168      21.595
  SFL3                 JUNCTION      0.00     0.00     0  00:00           0           0       0.000 gal
  SMH1330              JUNCTION      0.00   397.98     0  07:00           0       0.628       0.000
  SMH1653              JUNCTION      0.00     0.00     0  00:00           0           0       0.000 gal
  SMH1696              JUNCTION      0.00     0.00     0  00:00           0           0       0.000 gal
  SMH1731              JUNCTION      0.00     0.00     0  00:00           0           0       0.000 gal
  SMH2033              JUNCTION      0.00     0.00     0  00:00           0           0       0.000 gal
  SMH2102              JUNCTION      0.00     0.00     0  00:00           0           0       0.000 gal
  SMH2386              JUNCTION      0.00     0.00     0  00:00           0           0       0.000 gal
  SPJ106               JUNCTION     49.50    99.00     0  07:00      0.0782       0.156       0.040
  SPJ112               JUNCTION    810.00   831.60     0  07:00        1.28        1.31       0.038
  SPJ113               JUNCTION   1152.00  1247.04     0  07:00        1.82        1.97       0.183
  SPJ116               JUNCTION     42.12    84.24     0  07:00      0.0665       0.133       0.012
  SPJ117               JUNCTION    212.40   226.98     0  07:00       0.336       0.359       0.197
  SPJ118               JUNCTION      5.04    10.08     0  07:00     0.00796      0.0159       4.990
  SPJ119               JUNCTION     90.00   102.96     0  07:00       0.142       0.163       0.397
  SPJ120               JUNCTION     90.00   133.62     0  00:59       0.142       0.159       0.090
  SPJ121               JUNCTION    396.00   397.80     0  07:00       0.626       0.628       0.001
  SPJ136               JUNCTION    423.00   451.44     0  07:00       0.668       0.713       0.018
  SPJ137               JUNCTION   1980.00  1989.90     0  07:00        3.13        3.14       0.029
  SPJ147               JUNCTION    732.60   734.40     0  07:00        1.16        1.16       0.062
  SPJ148               JUNCTION   1071.00  1072.98     0  07:00        1.69         1.7       0.268
  SPJ149               JUNCTION    648.00   652.68     0  07:00        1.02        1.03       0.004
  SPJ15                JUNCTION   1620.00  1781.28     0  07:00        2.56        2.81       0.142
  SPJ152               JUNCTION    540.00   541.80     0  07:00       0.853       0.856       0.004
  SPJ20                JUNCTION      3.60   169.74     0  07:00     0.00569       0.268       0.475
  SPJ5                 JUNCTION      3.60    77.04     0  07:00     0.00569       0.122       0.470
  SRED1                JUNCTION      0.00   240.11     0  01:17           0      0.0519      24.749
  SRED10               JUNCTION      0.00   451.19     1  08:00           0       0.713       0.095
  SRED11               JUNCTION      0.00  2562.82     1  08:00           0        4.09       0.245
  SRED12               JUNCTION      0.00     0.00     0  00:00           0           0       0.000 gal
  SRED13               JUNCTION      0.00     0.00     0  00:00           0           0       0.000 gal
  SRED14               JUNCTION      0.00   827.07     1  08:00           0        1.31       0.453
  SRED15               JUNCTION      0.00     0.00     0  00:00           0           0       0.000 gal
  SRED16               JUNCTION      0.00  1032.33     0  00:00           0       0.621       1.041
  SRED17               JUNCTION      1.80   542.59     1  08:00     0.00284       0.859       0.070
  SRED18               JUNCTION    344.52 10717.71     1  08:00       0.544        20.5       0.052
  SRED19               JUNCTION    349.02  3047.37     0  07:59       0.551        4.85       0.119
  SRED2                JUNCTION      9.90  1989.71     1  08:00      0.0156        3.17       0.099
  SRED20               JUNCTION    271.08  9462.93     1  08:00       0.428        18.5       0.084
  SRED3                JUNCTION     49.50   541.79     0  00:55      0.0782       0.159       2.540
  SRED4                JUNCTION    221.58  7955.24     1  08:59        0.35          16       0.086
  SRED5                JUNCTION    221.58  7771.26     1  09:00        0.35        15.7       0.074
  SRED6                JUNCTION    221.58  7403.78     1  08:59        0.35          15       0.103
  SRED7                JUNCTION    222.12  7221.86     1  08:59       0.351        14.7       0.067
  SRED8                JUNCTION      0.00  1095.95     1  08:00           0        1.84       0.468
  SRED9                JUNCTION     53.64  1190.58     1  09:06      0.0847        2.27       0.626
  STTC1                JUNCTION      0.00  2475.77     1  09:17           0        4.83       0.137
  STTC10               JUNCTION      0.00  1431.95     1  09:15           0        2.59       0.231
  STTC11               JUNCTION      0.00   220.40     1  08:00           0       0.392       1.413
  STTC12               JUNCTION      0.00  1103.47     1  08:00           0        1.99       0.684
  STTC13               JUNCTION     58.68  1282.04     1  09:11      0.0927        2.38       0.504
  STTC14               JUNCTION      0.00  1091.52     1  09:00           0        2.13       0.508
  STTC15               JUNCTION      0.00  1161.37     1  08:00           0        1.87       0.549
  STTC16               JUNCTION    344.52 10032.34     1  08:00       0.544        19.4       0.084
  STTC17               JUNCTION     73.44   241.83     0  01:00       0.116       0.243       0.503
  STTC18               JUNCTION      0.00  2579.34     1  08:00           0        4.11       0.286
  STTC19               JUNCTION      0.00   635.15     0  01:27           0       0.268       2.093
  STTC2                JUNCTION      0.00  1668.06     1  09:19           0        2.89       0.181
  STTC20               JUNCTION      0.00  2704.80     1  08:00           0        4.34       0.061
  STTC21               JUNCTION      0.00  2550.71     1  08:00           0        4.08       0.116
  STTC22               JUNCTION      0.00     0.00     0  00:00           0           0       0.000 gal
  STTC23               JUNCTION      0.00     0.00     0  00:00           0           0       0.000 gal
  STTC24               JUNCTION      0.00     0.00     0  00:00           0           0       0.000 gal
  STTC25               JUNCTION      0.00   831.01     1  08:00           0        1.31       0.252
  STTC26               JUNCTION      0.00   952.58     0  06:00           0        1.97       0.687
  STTC28               JUNCTION     49.50   149.39     1  07:45      0.0782       0.235       0.203
  STTC29               JUNCTION      0.00   722.51     1  10:19           0        1.95       0.246
  STTC3                JUNCTION    203.22  3316.06     1  09:00       0.321        6.44       0.236
  STTC30               JUNCTION      0.00   740.53     0  06:01           0        1.96       0.162
  STTC31               JUNCTION      8.46  1306.11     1  09:28      0.0134        2.76       0.221
  STTC32               JUNCTION      0.00   755.42     1  10:19           0        1.94       0.234
  STTC33               JUNCTION      1.80   486.96     1  08:00     0.00284       0.903       0.803
  STTC34               JUNCTION    693.54 14464.18     1  08:00         1.1        26.4       0.122
  STTC35               JUNCTION      0.00  2717.58     1  08:00           0         4.3       0.025
  STTC4                JUNCTION    203.22  2948.31     1  09:00       0.321        5.77       0.072
  STTC5                JUNCTION    213.12  5293.96     1  08:00       0.337        10.2       0.092
  STTC6                JUNCTION    271.08  8670.54     1  08:00       0.428        17.3       0.052
  STTC7                JUNCTION    221.58  8138.45     1  08:59        0.35        16.4       0.049
  STTC8                JUNCTION    221.58  6720.82     1  09:03        0.35        13.7       0.083
  STTC9                JUNCTION      0.00  1646.88     1  09:19           0        2.92       0.505
  SVAL102              JUNCTION      0.00  1688.73     1  09:18           0        2.88       0.198
  SVAL103              JUNCTION      0.00  1246.92     1  07:00           0        1.97       0.297
  SVAL104              JUNCTION    203.22  2614.57     1  09:00       0.321        5.14       0.153
  SVAL105              JUNCTION      0.00  1663.39     1  09:19           0         2.9       0.434
  SVAL106              JUNCTION      0.00  1677.02     1  09:19           0        2.89       0.182
  SVAL107              JUNCTION      0.00  1685.30     1  09:18           0        2.88       0.208
  SVAL108              JUNCTION    203.22  2782.81     1  09:00       0.321        5.46       0.126
  SVAL109              JUNCTION      0.00  2782.19     1  09:00           0        5.45       0.093
  SVAL110              JUNCTION    203.22  3113.98     1  09:00       0.321        6.08       0.104
  SVAL111              JUNCTION      0.00     0.00     0  00:00           0           0       0.000 gal
  SVAL112              JUNCTION      0.00     0.00     0  00:00           0           0       0.000 gal
  SVAL113              JUNCTION    203.22  3604.40     1  09:00       0.321        6.69       0.152
  SVAL114              JUNCTION      9.90  1993.10     1  08:00      0.0156        3.16       0.052
  SVAL115              JUNCTION      9.90  1968.42     1  08:00      0.0156        3.19       0.099
  SVAL116              JUNCTION    221.58  7586.91     1  09:00        0.35        15.4       0.072
  SVAL117              JUNCTION    221.58  7056.79     1  09:03        0.35        14.3       0.038
  SVAL118              JUNCTION    213.12  5462.53     1  08:00       0.337        10.5       0.072
  SVAL119              JUNCTION      8.46  1363.63     1  09:27      0.0134         2.8       0.224
  SVAL120              JUNCTION    221.58  6915.91     1  09:03        0.35          14       0.065
  SVAL121              JUNCTION      0.00   201.96     1  09:32           0       0.344       1.586
  SVAL122              JUNCTION      0.00   172.46     0  01:36           0       0.133       0.643
  SVAL123              JUNCTION     58.68  1365.29     1  09:14      0.0927        2.46       0.274
  SVAL124              JUNCTION      0.00    95.42     0  07:16           0      0.0575       8.442
  SVAL125              JUNCTION     53.64  1134.21     1  09:05      0.0847         2.2       0.543
  SVAL126              JUNCTION      5.04    18.54     1  09:58     0.00796      0.0297      13.555
  SVAL127              JUNCTION      5.04    12.31     1  09:58     0.00796      0.0231       6.434
  SVAL128              JUNCTION      0.00  1048.87     1  08:00           0        1.98       0.619
  SVAL129              JUNCTION      0.00    97.32     1  07:00           0       0.162       1.160
  SVAL130              JUNCTION      0.00   106.93     0  00:59           0       0.159       0.791
  SVAL131              JUNCTION      0.00  1142.82     1  08:00           0        1.86       0.747
  SVAL132              JUNCTION      0.00   450.24     1  08:00           0       0.712       0.265
  SVAL133              JUNCTION      0.00   732.33     1  08:00           0        1.16       0.138
  SVAL134              JUNCTION     49.50    70.05     0  00:37      0.0782      0.0796       0.163
  SVAL135              JUNCTION    221.58  8323.50     1  09:00        0.35        16.7       0.029
  SVAL136              JUNCTION      0.00     0.00     0  00:00           0           0       0.000 gal
  SVAL137              JUNCTION      3.60    40.29     0  01:02     0.00569     0.00596       0.000
  SVAL138              JUNCTION     73.44   286.74     0  01:07       0.116       0.358       0.059
  SVAL139              JUNCTION    344.52 10374.44     1  07:59       0.544          20       0.042
  SVAL140              JUNCTION      0.00     0.00     0  00:00           0           0       0.000 gal
  SVAL141              JUNCTION      0.00   148.52     1  07:45           0       0.233       0.415
  SVAL142              JUNCTION      0.00     0.00     0  00:00           0           0       0.000 gal
  SVAL143              JUNCTION      0.00  1781.54     1  07:00           0        2.81       0.171
  SVAL144              JUNCTION      0.00   826.42     1  08:00           0        1.31       0.384
  SVAL145              JUNCTION      0.00  1339.71     0  01:27           0       0.267       1.534
  SVAL146              JUNCTION      0.00  2547.17     1  08:00           0        4.08       0.092
  SVAL147              JUNCTION      0.00  2701.83     0  08:01           0        4.33       0.324
  SVAL148              JUNCTION      0.00  2561.00     1  08:00           0        4.08       0.027
  SVAL149              JUNCTION      0.00     0.00     0  00:00           0           0       0.000 gal
  SVAL150              JUNCTION      0.00     0.00     0  00:00           0           0       0.000 gal
  SVAL151              JUNCTION      0.00     0.00     0  00:00           0           0       0.000 gal
  SVAL152              JUNCTION      0.00     0.00     0  00:00           0           0       0.000 gal
  SVAL153              JUNCTION      0.00     0.00     0  00:00           0           0       0.000 gal
  SVAL154              JUNCTION      0.00     0.00     0  00:00           0           0       0.000 gal
  SVAL155              JUNCTION      0.00   783.10     0  06:01           0        1.96       0.073
  SVAL156              JUNCTION      0.00   863.67     0  06:00           0        1.38       0.496
  SVAL157              JUNCTION      0.00   813.29     0  00:00           0       0.614       2.090
  SVAL158              JUNCTION      0.00     0.00     0  00:00           0           0       0.000 gal
  SVAL159              JUNCTION    271.08  8922.74     1  08:00       0.428        17.7       0.088
  SVAL160              JUNCTION    271.08  9193.13     1  08:00       0.428        18.1       0.050
  SVAL161              JUNCTION      0.00   700.00     0  00:00           0        1.95      -0.011
  SVAL162              JUNCTION      0.00   746.02     0  00:02           0        1.95       0.275
  SVAL163              JUNCTION      0.00   160.68     0  00:05           0     0.00848      21.230
  SVAL164              JUNCTION      0.00   765.58     0  06:01           0        1.96       0.099
  SVAL165              JUNCTION      0.00     0.00     0  00:00           0           0       0.000 gal
  SVAL166              JUNCTION      8.46  1356.35     1  09:27      0.0134        2.79       0.175
  SVAL167              JUNCTION      8.46  1328.12     1  09:27      0.0134        2.76       0.209
  SVAL168              JUNCTION      1.80   493.84     1  09:25     0.00284       0.859       0.342
  SVAL169              JUNCTION      4.70  1349.32     1  09:27      0.0133        2.77       0.127
  SVAL170              JUNCTION      0.00   806.43     1  10:17           0        1.89       0.245
  SVAL171              JUNCTION      0.00   803.74     1  10:17           0         1.9       0.297
  SVAL172              JUNCTION      0.00   805.30     1  10:17           0         1.9       0.335
  SVAL173              JUNCTION      0.00   773.91     1  10:18           0        1.92       0.254
  SVAL174              JUNCTION      0.00   776.78     1  10:18           0        1.92       0.356
  SVAL175              JUNCTION      0.00   789.92     1  10:18           0        1.91       0.255
  SVAL176              JUNCTION      0.00   772.22     1  10:18           0        1.93       0.279
  SVAL177              JUNCTION      0.00   769.61     1  10:19           0        1.93       0.269
  SVAL178              JUNCTION      0.00   741.82     1  10:19           0        1.94       0.205
  SVAL179              JUNCTION      1.80   531.22     1  08:00     0.00284       0.862       0.158
  SVAL180              JUNCTION      1.80   491.61     1  09:25     0.00284       0.859       0.291
  SVAL181              JUNCTION      1.80   488.79     1  09:25     0.00284       0.858       0.234
  SVAL182              JUNCTION      1.80   546.61     0  00:25     0.00284       0.857       0.253
  SVAL183              JUNCTION      1.80   512.61     1  08:00     0.00284        0.87       0.341
  SVAL184              JUNCTION      0.00   100.27     0  07:11           0      0.0539       8.753
  SVAL185              JUNCTION      3.60   519.40     1  08:00     0.00569       0.868       0.130
  SVAL186              JUNCTION      1.80   513.93     0  00:25     0.00284       0.858       0.438
  SVAL187              JUNCTION      1.80   528.54     1  08:00     0.00284       0.864       0.170
  SVAL188              JUNCTION      1.80   537.12     1  08:00     0.00284       0.861       0.163
  SVAL189              JUNCTION      0.00  2701.64     0  08:01           0         4.3       0.048
  SVAL190              JUNCTION      0.00  2701.19     1  08:01           0        4.31       0.345
  SINF1                OUTFALL     693.54 15145.11     1  08:00         1.1        27.5       0.000
  SWELL106             STORAGE      49.50    49.50     0  07:00      0.0782      0.0782       0.000
  SWELL112             STORAGE      21.60    21.60     0  07:00      0.0341      0.0341       0.000
  SWELL113             STORAGE      95.04    95.04     0  07:00        0.15        0.15       0.000
  SWELL116             STORAGE      42.12    42.12     0  07:00      0.0665      0.0665       0.000
  SWELL117             STORAGE      14.58    14.58     0  07:00       0.023       0.023       0.000
  SWELL118             STORAGE       5.04     5.04     0  07:00     0.00796     0.00796       0.000
  SWELL119             STORAGE      12.96    12.96     0  07:00      0.0205      0.0205       0.000
  SWELL120             STORAGE      10.44    10.44     0  07:00      0.0165      0.0165       0.000
  SWELL121             STORAGE       1.80     1.80     0  07:00     0.00284     0.00284       0.000
  SWELL139             STORAGE       9.90     9.90     0  07:00      0.0156      0.0156       0.000
  SWELL15              STORAGE     161.28   161.28     0  07:00       0.255       0.255       0.000
  SWELL151             STORAGE      28.44    28.44     0  07:00      0.0449      0.0449       0.000
  SWELL152             STORAGE       1.80     1.80     0  07:00     0.00284     0.00284       0.000
  SWELL153             STORAGE       1.98     1.98     0  07:00     0.00313     0.00313       0.000
  SWELL154             STORAGE       4.68     4.68     0  07:00     0.00739     0.00739       0.000
  SWELL157             STORAGE       1.80     1.80     0  07:00     0.00284     0.00284       0.000
  SWELL20              STORAGE     166.14   166.14     0  07:00       0.262       0.262       0.000
  SWELL5               STORAGE      73.44    73.44     0  07:00       0.116       0.116       0.000
  
  
  **********************
  Node Surcharge Summary
  **********************
  
  Surcharging occurs when water rises above the top of the highest conduit.
  ---------------------------------------------------------------------
                                               Max. Height   Min. Depth
                                   Hours       Above Crown    Below Rim
  Node                 Type      Surcharged           Feet         Feet
  ---------------------------------------------------------------------
  SEND10               JUNCTION       47.00          0.003        3.830
  SEND12               JUNCTION       45.06        458.647        0.000
  SEND9                JUNCTION       46.93        475.076        0.000
  SFL1                 JUNCTION       46.43        494.588        0.000
  SFL2                 JUNCTION       46.64        455.761        0.000
  SMH1330              JUNCTION       47.00          3.667        0.000
  SPJ106               JUNCTION       46.88         26.508        0.000
  SPJ112               JUNCTION       46.98        297.485        0.000
  SPJ113               JUNCTION       46.87        535.855        0.000
  SPJ116               JUNCTION       47.00        496.021        0.000
  SPJ117               JUNCTION       46.53        494.904        0.000
  SPJ118               JUNCTION       44.94        454.670        0.000
  SPJ119               JUNCTION       46.43        507.632        0.000
  SPJ120               JUNCTION       46.00        532.313        0.000
  SPJ121               JUNCTION       47.00         78.551        0.000
  SPJ136               JUNCTION       46.99        736.601        0.000
  SPJ137               JUNCTION       46.99        395.862        0.000
  SPJ147               JUNCTION       46.56        678.492        0.000
  SPJ148               JUNCTION       46.81       1003.333        0.000
  SPJ149               JUNCTION       47.00       1003.667        0.000
  SPJ15                JUNCTION       46.90        432.933        0.000
  SPJ152               JUNCTION       47.00        470.233        0.000
  SPJ20                JUNCTION       46.66        127.835        0.000
  SPJ5                 JUNCTION       46.79         25.022        0.000
  SRED1                JUNCTION       46.57        399.756        0.000
  SRED10               JUNCTION       46.92        686.198        0.000
  SRED11               JUNCTION       46.30        170.457        0.000
  SRED14               JUNCTION       46.50        252.286        0.000
  SRED16               JUNCTION       47.00        997.756        0.000
  SRED17               JUNCTION       46.92        461.808        0.000
  SRED18               JUNCTION       45.87         14.551        0.000
  SRED19               JUNCTION       45.78         14.855        0.000
  SRED2                JUNCTION       45.95        394.021        0.000
  SRED20               JUNCTION       46.01         31.208        0.000
  SRED3                JUNCTION       46.08        143.621        0.000
  SRED4                JUNCTION       46.22        208.721        0.000
  SRED5                JUNCTION       46.34        219.964        0.000
  SRED6                JUNCTION       46.42        277.636        0.000
  SRED7                JUNCTION       46.61        287.663        0.000
  SRED8                JUNCTION       46.03        532.206        0.000
  SRED9                JUNCTION       45.80        490.241        0.000
  STTC1                JUNCTION       46.58        465.988        0.000
  STTC10               JUNCTION       45.39        484.523        0.000
  STTC11               JUNCTION       46.43        494.589        0.000
  STTC12               JUNCTION       46.01        532.189        0.000
  STTC13               JUNCTION       45.80        490.218        0.000
  STTC14               JUNCTION       45.66        506.941        0.000
  STTC15               JUNCTION       46.58        672.898        0.000
  STTC16               JUNCTION       45.97         19.616        0.000
  STTC17               JUNCTION       45.99         20.029        0.000
  STTC18               JUNCTION       46.48        228.192        0.000
  STTC19               JUNCTION       45.55        112.295        0.000
  STTC2                JUNCTION       44.91        457.813        0.000
  STTC20               JUNCTION       45.52        107.465        0.000
  STTC21               JUNCTION       46.22        165.005        0.000
  STTC25               JUNCTION       46.78        278.289        0.000
  STTC26               JUNCTION       47.00        998.141        0.000
  STTC28               JUNCTION       46.84         26.349        0.000
  STTC29               JUNCTION       46.91        474.725        0.000
  STTC3                JUNCTION       46.57        399.756        0.000
  STTC30               JUNCTION       47.00        991.128        0.000
  STTC31               JUNCTION       45.75        402.808        0.000
  STTC32               JUNCTION       46.80        466.073        0.000
  STTC33               JUNCTION       46.64        455.723        0.000
  STTC34               JUNCTION       45.88         14.692        0.000
  STTC35               JUNCTION       45.61         25.227        0.000
  STTC4                JUNCTION       45.85        405.545        0.000
  STTC5                JUNCTION       45.97        393.669        0.000
  STTC6                JUNCTION       46.06        143.332        0.000
  STTC7                JUNCTION       46.19        159.237        0.000
  STTC8                JUNCTION       46.00        382.294        0.000
  STTC9                JUNCTION       45.44        484.306        0.000
  SVAL102              JUNCTION       45.57        447.792        0.000
  SVAL103              JUNCTION       46.59        466.391        0.000
  SVAL104              JUNCTION       46.38        444.625        0.000
  SVAL105              JUNCTION       44.98        461.537        0.000
  SVAL106              JUNCTION       44.76        456.653        0.000
  SVAL107              JUNCTION       44.82        472.130        0.000
  SVAL108              JUNCTION       45.71        418.131        0.000
  SVAL109              JUNCTION       45.80        406.735        0.000
  SVAL110              JUNCTION       46.64        400.674        0.000
  SVAL113              JUNCTION       45.88        392.544        0.000
  SVAL114              JUNCTION       46.98        395.107        0.000
  SVAL115              JUNCTION       45.96        393.642        0.000
  SVAL116              JUNCTION       46.30        243.217        0.000
  SVAL117              JUNCTION       46.59        292.543        0.000
  SVAL118              JUNCTION       46.86        403.982        0.000
  SVAL119              JUNCTION       46.04        382.876        0.000
  SVAL120              JUNCTION       46.59        390.560        0.000
  SVAL121              JUNCTION       45.65        484.861        0.000
  SVAL122              JUNCTION       45.40        484.942        0.000
  SVAL123              JUNCTION       45.80        489.603        0.000
  SVAL124              JUNCTION       46.43        494.588        0.000
  SVAL125              JUNCTION       45.60        490.279        0.000
  SVAL126              JUNCTION       43.89        439.437        0.000
  SVAL127              JUNCTION       44.94        454.656        0.000
  SVAL128              JUNCTION       45.66        507.030        0.000
  SVAL129              JUNCTION       46.23        507.484        0.000
  SVAL130              JUNCTION       46.31        532.718        0.000
  SVAL131              JUNCTION       46.08        532.514        0.000
  SVAL132              JUNCTION       46.75        673.354        0.000
  SVAL133              JUNCTION       46.93        676.055        0.000
  SVAL134              JUNCTION       46.95        144.893        0.000
  SVAL135              JUNCTION       46.36        147.173        0.000
  SVAL137              JUNCTION       46.71         25.021        0.000
  SVAL138              JUNCTION       46.43         20.679        0.000
  SVAL139              JUNCTION       45.96         19.312        0.000
  SVAL141              JUNCTION       46.45          3.667        0.000
  SVAL143              JUNCTION       46.76        229.010        0.000
  SVAL144              JUNCTION       46.48        228.213        0.000
  SVAL145              JUNCTION       45.52        107.308        0.000
  SVAL146              JUNCTION       46.16        108.140        0.000
  SVAL147              JUNCTION       45.64        112.030        0.000
  SVAL148              JUNCTION       46.24        165.242        0.000
  SVAL155              JUNCTION       47.00       1000.073        0.000
  SVAL156              JUNCTION       47.00        998.406        0.000
  SVAL157              JUNCTION       47.00        997.925        0.000
  SVAL159              JUNCTION       46.10         98.798        0.000
  SVAL160              JUNCTION       46.05         32.194        0.000
  SVAL161              JUNCTION       46.66        469.214        0.000
  SVAL162              JUNCTION       46.91        474.796        0.000
  SVAL163              JUNCTION       46.93        475.076        0.000
  SVAL164              JUNCTION       47.00        995.042        0.000
  SVAL165              JUNCTION       47.00          0.003        3.830
  SVAL166              JUNCTION       45.78        389.965        0.000
  SVAL167              JUNCTION       45.73        401.988        0.000
  SVAL168              JUNCTION       45.94        403.080        0.000
  SVAL169              JUNCTION       45.74        401.054        0.000
  SVAL170              JUNCTION       45.76        406.672        0.000
  SVAL171              JUNCTION       46.10        437.675        0.000
  SVAL172              JUNCTION       45.89        421.876        0.000
  SVAL173              JUNCTION       46.24        445.512        0.000
  SVAL174              JUNCTION       46.32        460.174        0.000
  SVAL175              JUNCTION       46.32        459.968        0.000
  SVAL176              JUNCTION       46.51        457.719        0.000
  SVAL177              JUNCTION       46.04        443.555        0.000
  SVAL178              JUNCTION       46.82        466.350        0.000
  SVAL179              JUNCTION       46.82        458.643        0.000
  SVAL180              JUNCTION       46.20        414.876        0.000
  SVAL181              JUNCTION       46.45        424.305        0.000
  SVAL182              JUNCTION       46.39        423.219        0.000
  SVAL183              JUNCTION       46.65        455.746        0.000
  SVAL184              JUNCTION       46.64        455.736        0.000
  SVAL185              JUNCTION       46.59        436.657        0.000
  SVAL186              JUNCTION       46.64        455.700        0.000
  SVAL187              JUNCTION       46.75        437.433        0.000
  SVAL188              JUNCTION       46.89        461.222        0.000
  SVAL189              JUNCTION       45.61         25.264        0.000
  SVAL190              JUNCTION       45.69         42.932        0.000
  SWELL106             STORAGE        47.00          5.920       12.090
  SWELL112             STORAGE        47.00          4.940       17.660
  SWELL113             STORAGE        47.00          5.070       16.290
  SWELL116             STORAGE        47.00          6.810       11.560
  SWELL117             STORAGE        47.00          7.010       14.050
  SWELL118             STORAGE        47.00          8.070       14.870
  SWELL119             STORAGE        47.00          6.120       15.750
  SWELL120             STORAGE        47.00          5.910       19.290
  SWELL121             STORAGE        47.00          6.080       12.680
  SWELL139             STORAGE        47.00         12.160       15.440
  SWELL15              STORAGE        47.00          6.650       14.730
  SWELL151             STORAGE        47.00          6.630       12.370
  SWELL152             STORAGE        47.00          6.490       18.350
  SWELL153             STORAGE        47.00          6.700       17.860
  SWELL154             STORAGE        47.00          5.860       11.800
  SWELL157             STORAGE        47.00          7.370       12.410
  SWELL20              STORAGE        47.00          6.760        9.530
  SWELL5               STORAGE        47.00          7.340       12.470
  
  
  *********************
  Node Flooding Summary
  *********************
  
  Flooding refers to all water that overflows a node, whether it ponds or not.
  --------------------------------------------------------------------------
                                                             Total   Maximum
                                 Maximum   Time of Max       Flood    Ponded
                        Hours       Rate    Occurrence      Volume     Depth
  Node                 Flooded       GPM   days hr:min    10^6 gal      Feet
  --------------------------------------------------------------------------
  SMH1330                47.00    397.90      0  07:00       0.628     0.000
  SPJ148                 32.41    570.58      1  07:04       0.314  1000.000
  SPJ149                 35.98    455.17      0  07:54       0.410  1000.000
  SVAL141                46.45    148.51      1  07:58       0.232     0.000
  
  
  **********************
  Storage Volume Summary
  **********************
  
  ------------------------------------------------------------------------------------------------
                         Average    Avg   Evap  Exfil     Maximum    Max    Time of Max    Maximum
                          Volume   Pcnt   Pcnt   Pcnt      Volume   Pcnt     Occurrence    Outflow
  Storage Unit          1000 ftł   Full   Loss   Loss    1000 ftł   Full    days hr:min        GPM
  ------------------------------------------------------------------------------------------------
  SWELL106                 0.000    0.0    0.0    0.0       0.000    0.0       0  00:00      49.50
  SWELL112                 0.000    0.0    0.0    0.0       0.000    0.0       0  00:00      21.60
  SWELL113                 0.000    0.0    0.0    0.0       0.000    0.0       0  00:00      95.04
  SWELL116                 0.000    0.0    0.0    0.0       0.000    0.0       0  00:00      42.12
  SWELL117                 0.000    0.0    0.0    0.0       0.000    0.0       0  00:00      14.58
  SWELL118                 0.000    0.0    0.0    0.0       0.000    0.0       0  00:00       5.04
  SWELL119                 0.000    0.0    0.0    0.0       0.000    0.0       0  00:00      12.96
  SWELL120                 0.000    0.0    0.0    0.0       0.000    0.0       0  00:00      10.44
  SWELL121                 0.000    0.0    0.0    0.0       0.000    0.0       0  00:00       1.80
  SWELL139                 0.000    0.0    0.0    0.0       0.000    0.0       0  00:00       9.90
  SWELL15                  0.000    0.0    0.0    0.0       0.000    0.0       0  00:00     161.28
  SWELL151                 0.000    0.0    0.0    0.0       0.000    0.0       0  00:00      28.44
  SWELL152                 0.000    0.0    0.0    0.0       0.000    0.0       0  00:00       1.80
  SWELL153                 0.000    0.0    0.0    0.0       0.000    0.0       0  00:00       1.98
  SWELL154                 0.000    0.0    0.0    0.0       0.000    0.0       0  00:00       4.68
  SWELL157                 0.000    0.0    0.0    0.0       0.000    0.0       0  00:00       1.80
  SWELL20                  0.000    0.0    0.0    0.0       0.000    0.0       0  00:00     166.14
  SWELL5                   0.000    0.0    0.0    0.0       0.000    0.0       0  00:00      73.44
  
  
  ***********************
  Outfall Loading Summary
  ***********************
  
  -----------------------------------------------------------
                         Flow       Avg       Max       Total
                         Freq      Flow      Flow      Volume
  Outfall Node           Pcnt       GPM       GPM    10^6 gal
  -----------------------------------------------------------
  SINF1                100.00   9302.06  15145.11      27.480
  -----------------------------------------------------------
  System               100.00   9302.06  15145.11      27.480
  
  
  ********************
  Link Flow Summary
  ********************
  
  -----------------------------------------------------------------------------
                                 Maximum  Time of Max   Maximum    Max/    Max/
                                  |Flow|   Occurrence   |Veloc|    Full    Full
  Link                 Type          GPM  days hr:min    ft/sec    Flow   Depth
  -----------------------------------------------------------------------------
  SMAIN1484            CONDUIT      0.00     0  00:00      0.00    0.00    0.00
  SMAIN1485            CONDUIT   3056.81     0  07:59      1.39    0.08    1.00
  SMAIN1486            CONDUIT      0.00     0  00:00      0.00    0.00    0.50
  SMAIN1905            CONDUIT      0.00     0  00:00      0.00    0.00    0.00
  SMAIN1906            CONDUIT   2944.63     1  09:00      8.35    1.35    1.00
  SMAIN1907            CONDUIT   7586.61     1  09:00     12.11    2.88    1.00
  SMAIN1908            CONDUIT   7953.80     1  08:59     12.69    2.36    1.00
  SMAIN1909            CONDUIT   7770.59     1  08:59      7.94    1.13    1.00
  SMAIN1910            CONDUIT    212.53     1  09:30      2.41    7.93    1.00
  SMAIN1911            CONDUIT   2490.28     1  09:17      7.06    1.20    1.00
  SMAIN1912            CONDUIT     43.27     0  07:16      0.63    2.77    1.00
  SMAIN1913            CONDUIT    220.40     1  08:00      2.50   24.16    1.00
  SMAIN1914            CONDUIT      9.23     1  09:58      0.52    2.54    1.00
  SMAIN1915            CONDUIT     97.32     1  07:00      2.48   17.71    1.00
  SMAIN1916            CONDUIT     83.42     1  07:00      2.45    8.66    1.00
  SMAIN1917            CONDUIT     99.53     1  07:00      2.79    0.92    1.00
  SMAIN1919            CONDUIT    437.92     1  08:00      4.97    1.30    1.00
  SMAIN1920            CONDUIT     38.99     0  01:02      3.37    0.01    1.00
  SMAIN1921            CONDUIT     77.60     1  07:48      3.48    0.01    1.00
  SMAIN1922            CONDUIT      0.00     0  00:00      0.00    0.00    0.00
  SMAIN1923            CONDUIT   2701.83     0  08:01     22.99    0.15    1.00
  SMAIN1924            CONDUIT      0.00     0  00:00      0.00    0.00    0.00
  SMAIN1925            CONDUIT      0.00     0  00:00      0.00    0.00    0.00
  SMAIN1926            CONDUIT      0.00     0  00:00      0.00    0.00    0.00
  SMAIN1927            CONDUIT      0.00     0  00:00      0.00    0.00    0.00
  SMAIN1928            CONDUIT      0.00     0  00:00      0.00    0.00    0.00
  SMAIN1929            CONDUIT    831.01     1  08:00      5.30    0.47    1.00
  SMAIN1930            CONDUIT    827.07     1  08:00      5.28    3.73    1.00
  SMAIN1931            CONDUIT   1772.78     1  08:00     11.32   26.28    1.00
  SMAIN1932            CONDUIT      0.00     0  00:00      0.00    0.00    0.00
  SMAIN1933            CONDUIT    171.50     1  07:00      1.95    0.01    1.00
  SMAIN1935            CONDUIT   1382.77     1  09:25      5.65   12.43    1.00
  SMAIN1936            CONDUIT   7427.14     1  09:00     11.85  273.73    1.00
  SMAIN1937            CONDUIT   1226.38     1  08:00      7.83    1.29    1.00
  SMAIN1939            CONDUIT      9.50     0  02:14      0.97   25.23    1.00
  SMAIN1941            CONDUIT    863.67     0  06:00      5.51    1.87    1.00
  SMAIN1942            CONDUIT    792.86     0  06:09      5.06    0.77    1.00
  SMAIN1943            CONDUIT    797.83     0  00:00      5.25    0.66    1.00
  SMAIN1944            CONDUIT    400.00     0  05:00     10.21    2.10    1.00
  SMAIN1945            CONDUIT    813.29     0  00:00      5.19    0.66    1.00
  SMAIN1946            CONDUIT    800.00     0  00:00      5.11    0.95    1.00
  SMAIN1947            CONDUIT      0.00     0  00:00      0.00    0.00    0.00
  SMAIN1948            CONDUIT    450.24     1  08:00      5.11    7.80    1.00
  SMAIN1950            CONDUIT    732.33     1  08:00      4.67    1.27    1.00
  SMAIN1951            CONDUIT   1142.82     1  08:00      7.29    4.92    1.00
  SMAIN1952            CONDUIT    451.19     1  08:00     11.52    6.20    1.00
  SMAIN1953            CONDUIT    723.45     1  08:00      4.62    0.99    1.00
  SMAIN1954            CONDUIT   1095.95     1  08:00      7.00   14.98    1.00
  SMAIN1955            CONDUIT   1028.28     1  08:00      4.20    7.51    1.00
  SMAIN1956            CONDUIT   1048.87     1  08:00      4.28  229.70    1.00
  SMAIN1957            CONDUIT    106.93     0  00:59      2.73   12.19    1.00
  SMAIN1958            CONDUIT   1020.81     1  09:00      4.17   10.55    1.00
  SMAIN1959            CONDUIT   1101.43     1  09:05      4.50  181.39    1.00
  SMAIN1960            CONDUIT   1157.80     1  09:06      3.28    6.93    1.00
  SMAIN1961            CONDUIT   1246.18     1  09:11      3.54    6.06    1.00
  SMAIN1962            CONDUIT   1329.43     1  09:14      3.77   33.86    1.00
  SMAIN1963            CONDUIT     28.41     1  10:12      0.73    3.29    1.00
  SMAIN1964            CONDUIT   1375.90     1  09:15      3.90    2.30    1.00
  SMAIN1965            CONDUIT    145.01     0  01:36      4.41    0.74    1.00
  SMAIN1966            CONDUIT     84.25     1  07:00      2.15    2.24    1.00
  SMAIN1967            CONDUIT     15.46     1  09:58      0.39    0.14    1.00
  SMAIN1968            CONDUIT   1441.09     1  09:15      4.09    1.20    1.00
  SMAIN1969            CONDUIT    201.96     1  09:32      2.29  161.78    1.00
  SMAIN1970            CONDUIT     95.42     0  07:16      1.08    3.26    1.00
  SMAIN1971            CONDUIT   1663.39     1  09:19      4.72    2.19    1.00
  SMAIN1972            CONDUIT   1667.51     1  09:19      4.73   93.89    1.00
  SMAIN1973            CONDUIT   1677.02     1  09:19      4.76   50.22    1.00
  SMAIN1974            CONDUIT   1685.30     1  09:18      6.38    0.50    1.00
  SMAIN1975            CONDUIT   1688.73     1  09:18      4.79    0.49    1.00
  SMAIN1976            CONDUIT   1699.22     1  09:18      4.82    0.12    1.00
  SMAIN1977            CONDUIT   1246.92     1  07:00      7.96    7.78    1.00
  SMAIN1978            CONDUIT   2618.22     1  09:17      7.43  231.96    1.00
  SMAIN1979            CONDUIT   2782.19     1  09:00      7.89    1.99    1.00
  SMAIN1980            CONDUIT   2778.96     1  09:00      7.88    1.50    1.00
  SMAIN1981            CONDUIT      0.00     0  00:00      0.00    0.00    0.50
  SMAIN1982            CONDUIT   3106.45     1  09:00      8.81   29.53    1.00
  SMAIN1983            CONDUIT    240.11     0  01:17      1.06    0.46    1.00
  SMAIN1984            CONDUIT      0.00     0  00:00      0.00    0.00    0.50
  SMAIN1985            CONDUIT      0.00     0  00:00      0.00    0.00    0.00
  SMAIN1986            CONDUIT   3670.29     1  09:01      5.86    0.59    1.00
  SMAIN1987            CONDUIT   5260.68     1  08:00      8.39    0.67    1.00
  SMAIN1988            CONDUIT   1939.94     1  08:00      5.88    0.84    1.00
  SMAIN1989            CONDUIT   1958.52     1  08:00      5.56    1.45    1.00
  SMAIN1991            CONDUIT   1979.81     1  08:00     12.64    1.02    1.00
  SMAIN1992            CONDUIT   5448.71     1  08:00      8.69    0.25    1.00
  SMAIN1993            CONDUIT   6921.38     1  09:03     19.63    9.21    1.00
  SMAIN1994            CONDUIT   7076.49     1  09:02     11.29    2.51    1.00
  SMAIN1995            CONDUIT   7246.56     1  09:00      7.40    1.79    1.00
  SMAIN1996            CONDUIT   8138.85     1  09:00     12.99    2.00    1.00
  SMAIN1997            CONDUIT    470.83     0  00:55      2.54    0.05    1.00
  SMAIN1998            CONDUIT   8327.16     1  09:00     13.29    0.51    1.00
  SMAIN1999            CONDUIT     69.90     0  00:37      1.82    0.29    1.00
  SMAIN2000            CONDUIT    148.52     1  07:45      3.79   11.39    1.00
  SMAIN2001            CONDUIT      0.00     0  00:00      0.00    0.00    0.50
  SMAIN2002            CONDUIT      0.00     0  00:00      0.00    0.00    0.00
  SMAIN2003            CONDUIT      0.00     0  00:00      0.00    0.00    0.00
  SMAIN2004            CONDUIT      0.00     0  00:00      0.00    0.00    0.00
  SMAIN2005            CONDUIT      0.00     0  00:00      0.00    0.00    0.00
  SMAIN2006            CONDUIT      0.00     0  00:00      0.00    0.00    0.00
  SMAIN2007            CONDUIT    826.42     1  08:00      2.34    0.25    1.00
  SMAIN2008            CONDUIT    966.47     1  08:00      2.74    5.94    1.00
  SMAIN2009            CONDUIT   2562.82     1  08:00      7.27    3.16    1.00
  SMAIN2010            CONDUIT   1781.54     1  07:00     11.37    3.09    1.00
  SMAIN2011            CONDUIT   2561.00     1  08:00     10.46    1.82    1.00
  SMAIN2012            CONDUIT   2550.71     1  08:00     10.42    3.88    1.00
  SMAIN2013            CONDUIT   2547.17     1  08:00     10.41    5.50    1.00
  SMAIN2014            CONDUIT   2549.44     1  08:00     10.41    1.21    1.00
  SMAIN2015            CONDUIT   1079.31     0  01:27      3.88    0.40    1.00
  SMAIN2016            CONDUIT    584.30     0  01:27      2.13    0.40    1.00
  SMAIN2017            CONDUIT   2701.19     1  08:01      7.66    2.81    1.00
  SMAIN2018            CONDUIT      0.00     0  00:00      0.00    0.00    0.50
  SMAIN2019            CONDUIT    186.05     0  01:00      1.51    0.16    1.00
  SMAIN2020            CONDUIT    260.22     0  01:07      2.43    0.31    1.00
  SMAIN2021            CONDUIT  10373.19     1  08:00      7.36    2.66    1.00
  SMAIN2022            CONDUIT  10029.92     1  07:59      7.11    0.51    1.00
  SMAIN2024            CONDUIT      0.00     0  00:00      0.00    0.00    0.50
  SMAIN2025            CONDUIT      0.00     0  00:00      0.00    0.00    0.00
  SMAIN2026            CONDUIT      0.00     0  00:00      0.00    0.00    0.00
  SMAIN2027            CONDUIT      0.00     0  00:00      0.00    0.00    0.00
  SMAIN2028            CONDUIT      0.00     0  00:00      0.00    0.00    0.00
  SMAIN2029            CONDUIT      0.00     0  00:00      0.00    0.00    0.00
  SMAIN2030            CONDUIT      0.00     0  00:00      0.00    0.00    0.00
  SMAIN2031            CONDUIT      0.00     0  00:00      0.00    0.00    0.00
  SMAIN2032            CONDUIT      0.00     0  00:00      0.00    0.00    0.00
  SMAIN2033            CONDUIT      0.00     0  00:00      0.00    0.00    0.00
  SMAIN2037            CONDUIT   8922.05     1  08:00     14.24  385.24    1.00
  SMAIN3302            CONDUIT     99.89     1  07:45      2.55    0.90    1.00
  SMAIN3307            CONDUIT     52.18     0  00:37      1.33    0.31    1.00
  SMAIN3310            CONDUIT   1983.20     1  08:00     12.66    1.05    1.00
  SMAIN3313            CONDUIT    397.98     0  07:00     10.16    4.92    1.00
  SMAIN3317            CONDUIT      0.00     0  00:00      0.00    0.00    1.00
  SMAIN3318            CONDUIT    700.00     0  00:00      4.80    1.03    1.00
  SMAIN3319            CONDUIT    714.43     1  10:19      4.56    9.94    1.00
  SMAIN3320            CONDUIT    765.58     0  06:01      4.89  101.72    1.00
  SMAIN3321            CONDUIT      0.00     0  00:00      0.00    0.00    1.00
  SMAIN3322            CONDUIT    740.53     0  06:01      4.73   85.64    1.00
  SMAIN3323            CONDUIT    746.02     0  00:02      7.18    0.86    1.00
  SMAIN3324            CONDUIT    160.68     0  00:05      4.10   15.49    1.00
  SMAIN3325            CONDUIT     26.35     0  00:04      1.12    7.06    1.00
  SMAIN3326            CONDUIT   1358.46     1  09:27      5.55    2.54    1.00
  SMAIN3327            CONDUIT   1322.95     1  09:27      5.40    1.41    1.00
  SMAIN3328            CONDUIT   1344.62     1  09:27      5.49    1.32    1.00
  SMAIN3329            CONDUIT   1351.18     1  09:27      5.52    1.69    1.00
  SMAIN3330            CONDUIT    501.84     1  09:25      3.20    0.65    1.00
  SMAIN3331            CONDUIT    807.94     1  10:17      3.30    2.82    1.00
  SMAIN3332            CONDUIT    806.43     1  10:17      3.85    0.60    1.00
  SMAIN3333            CONDUIT    805.30     1  10:17      3.81    0.92    1.00
  SMAIN3335            CONDUIT    773.91     1  10:18      4.07    0.47    1.00
  SMAIN3336            CONDUIT    776.78     1  10:18      6.13    0.53    1.00
  SMAIN3337            CONDUIT    789.92     1  10:18      3.23   19.65    1.00
  SMAIN3338            CONDUIT    803.74     1  10:17      3.37    0.35    1.00
  SMAIN3339            CONDUIT    772.22     1  10:18      5.01    0.54    1.00
  SMAIN3340            CONDUIT    741.82     1  10:19      4.73  129.95    1.00
  SMAIN3341            CONDUIT    755.42     1  10:19      4.82   12.76    1.00
  SMAIN3342            CONDUIT    769.61     1  10:19      3.83    0.34    1.00
  SMAIN3343            CONDUIT    492.74     1  09:25      3.15    0.76    1.00
  SMAIN3344            CONDUIT     84.45     0  00:21      0.78    3.75    1.00
  SMAIN3345            CONDUIT    100.27     0  07:11      1.19    1.44    1.00
  SMAIN3346            CONDUIT    513.28     0  00:25      3.28    7.23    1.00
  SMAIN3347            CONDUIT    545.96     0  00:25      5.53    0.32    1.00
  SMAIN3348            CONDUIT    487.69     1  09:25      4.22    0.84    1.00
  SMAIN3349            CONDUIT    490.51     1  09:25      3.13    0.69    1.00
  SMAIN3350            CONDUIT    515.80     1  08:00      3.29   39.53    1.00
  SMAIN3351            CONDUIT    526.74     1  08:00      3.36    0.24    1.00
  SMAIN3352            CONDUIT    485.16     1  08:00      3.10    8.21    1.00
  SMAIN3353            CONDUIT    535.32     1  08:00      3.42   34.50    1.00
  SMAIN3354            CONDUIT    540.79     1  08:00     13.81  139.96    1.00
  SMAIN3355            CONDUIT    510.81     1  08:00      3.95    0.20    1.00
  SMAIN3356            CONDUIT    529.42     1  08:00      3.38   76.04    1.00
  SMAIN3358            CONDUIT  14451.57     1  08:00     10.99    0.05    0.58
  SMAIN3359            CONDUIT   2717.58     1  08:00      7.71    1.21    1.00
  SMAIN3360            CONDUIT   2701.64     0  08:01      7.66    0.80    1.00
  SMAIN3361            CONDUIT   2729.01     1  08:00      7.74    0.81    1.00
  SMAIN3362            CONDUIT  10731.76     1  08:00      4.87    0.30    1.00
  SMAIN3403            CONDUIT   3480.21     1  09:00      5.55    1.31    1.00
  SMAIN3404            CONDUIT   8676.08     1  08:00     13.84    3.41    1.00
  SMAIN3405            CONDUIT   9461.41     1  08:00      6.71    1.37    1.00
  SMAIN3406            CONDUIT   9191.85     1  08:00     14.67   21.41    1.00
  SMAIN3407            CONDUIT   6780.50     1  09:03     10.82    0.82    1.00
  SPUMP106             PUMP        49.50     0  07:00                          
  SPUMP112             PUMP        21.60     0  07:00                          
  SPUMP113             PUMP        95.04     0  07:00                          
  SPUMP116             PUMP        42.12     0  07:00                          
  SPUMP117             PUMP        14.58     0  07:00                          
  SPUMP118             PUMP         5.04     0  07:00                          
  SPUMP119             PUMP        12.96     0  07:00                          
  SPUMP120             PUMP        10.44     0  07:00                          
  SPUMP121             PUMP         1.80     0  07:00                          
  SPUMP139             PUMP         9.90     0  07:00                          
  SPUMP15              PUMP       161.28     0  07:00                          
  SPUMP151             PUMP        28.44     0  07:00                          
  SPUMP152             PUMP         1.80     0  07:00                          
  SPUMP153             PUMP         1.98     0  07:00                          
  SPUMP154             PUMP         4.68     0  07:00                          
  SPUMP157             PUMP         1.80     0  07:00                          
  SPUMP20              PUMP       166.14     0  07:00                          
  SPUMP5               PUMP        73.44     0  07:00                          
  
  
  ***************************
  Flow Classification Summary
  ***************************
  
  -------------------------------------------------------------------------------------
                      Adjusted    ---------- Fraction of Time in Flow Class ---------- 
                       /Actual         Up    Down  Sub   Sup   Up    Down  Norm  Inlet 
  Conduit               Length    Dry  Dry   Dry   Crit  Crit  Crit  Crit  Ltd   Ctrl  
  -------------------------------------------------------------------------------------
  SMAIN1484               4.27   1.00  0.00  0.00  0.00  0.00  0.00  0.00  0.00  0.00
  SMAIN1485              37.45   0.00  0.00  0.00  1.00  0.00  0.00  0.00  0.00  0.00
  SMAIN1486               7.34   0.00  0.00  0.00  1.00  0.00  0.00  0.00  0.00  0.00
  SMAIN1905               2.22   1.00  0.00  0.00  0.00  0.00  0.00  0.00  0.00  0.00
  SMAIN1906               1.00   0.00  0.00  0.00  1.00  0.00  0.00  0.00  0.02  0.00
  SMAIN1907               1.00   0.00  0.00  0.00  1.00  0.00  0.00  0.00  0.01  0.00
  SMAIN1908               1.00   0.00  0.00  0.00  1.00  0.00  0.00  0.00  0.00  0.00
  SMAIN1909               1.00   0.00  0.00  0.00  1.00  0.00  0.00  0.00  0.00  0.00
  SMAIN1910               3.52   0.00  0.00  0.00  1.00  0.00  0.00  0.00  0.00  0.00
  SMAIN1911               1.00   0.00  0.00  0.00  1.00  0.00  0.00  0.00  0.00  0.00
  SMAIN1912               1.26   0.00  0.00  0.00  1.00  0.00  0.00  0.00  0.00  0.00
  SMAIN1913               1.00   0.00  0.00  0.00  1.00  0.00  0.00  0.00  0.00  0.00
  SMAIN1914               1.00   0.00  0.00  0.00  1.00  0.00  0.00  0.00  0.00  0.00
  SMAIN1915               1.04   0.00  0.00  0.00  1.00  0.00  0.00  0.00  0.00  0.00
[...]
  SMAIN2031               7.84   1.00  0.00  0.00  0.00  0.00  0.00  0.00  0.00  0.00
  SMAIN2032               1.00   1.00  0.00  0.00  0.00  0.00  0.00  0.00  0.00  0.00
  SMAIN2033               6.54   1.00  0.00  0.00  0.00  0.00  0.00  0.00  0.00  0.00
  SMAIN2037               1.00   0.00  0.00  0.00  1.00  0.00  0.00  0.00  0.00  0.00
  SMAIN3302               6.69   0.00  0.00  0.00  1.00  0.00  0.00  0.00  0.00  0.00
  SMAIN3307               1.00   0.00  0.00  0.00  1.00  0.00  0.00  0.00  0.00  0.00
  SMAIN3310              22.76   0.00  0.00  0.00  1.00  0.00  0.00  0.00  0.00  0.00
  SMAIN3313               1.00   0.00  0.00  0.00  1.00  0.00  0.00  0.00  0.00  0.00
  SMAIN3317               1.00   0.00  0.00  0.00  1.00  0.00  0.00  0.00  0.00  0.00
  SMAIN3318               1.00   0.00  0.00  0.00  1.00  0.00  0.00  0.00  0.00  0.00
  SMAIN3319               6.50   0.00  0.00  0.00  1.00  0.00  0.00  0.00  0.00  0.00
  SMAIN3320               1.00   0.00  0.00  0.00  1.00  0.00  0.00  0.00  0.00  0.00
  SMAIN3321               3.06   0.00  0.00  0.00  1.00  0.00  0.00  0.00  0.00  0.00
  SMAIN3322               1.00   0.00  0.00  0.00  1.00  0.00  0.00  0.00  0.00  0.00
  SMAIN3323               1.00   0.00  0.00  0.00  1.00  0.00  0.00  0.00  0.00  0.00
  SMAIN3324               3.48   0.00  0.00  0.00  1.00  0.00  0.00  0.00  0.00  0.00
  SMAIN3325               1.00   0.00  0.00  0.00  1.00  0.00  0.00  0.00  0.00  0.00
  SMAIN3326               1.00   0.00  0.00  0.00  1.00  0.00  0.00  0.00  0.02  0.00
  SMAIN3327               1.39   0.00  0.00  0.00  1.00  0.00  0.00  0.00  0.01  0.00
  SMAIN3328               1.00   0.00  0.00  0.00  1.00  0.00  0.00  0.00  0.03  0.00
  SMAIN3329               1.00   0.00  0.00  0.00  1.00  0.00  0.00  0.00  0.02  0.00
  SMAIN3330              12.62   0.00  0.00  0.00  1.00  0.00  0.00  0.00  0.00  0.00
  SMAIN3331               1.00   0.00  0.00  0.00  1.00  0.00  0.00  0.00  0.00  0.00
  SMAIN3332               1.00   0.02  0.00  0.00  0.98  0.00  0.00  0.00  0.00  0.00
  SMAIN3333               1.00   0.01  0.00  0.00  0.98  0.00  0.00  0.00  0.00  0.00
  SMAIN3335               1.00   0.00  0.01  0.00  0.99  0.00  0.00  0.00  0.00  0.00
  SMAIN3336               1.00   0.01  0.00  0.00  0.99  0.00  0.00  0.00  0.00  0.00
  SMAIN3337               1.00   0.01  0.00  0.00  0.99  0.00  0.00  0.00  0.00  0.00
  SMAIN3338               1.00   0.01  0.00  0.00  0.99  0.00  0.00  0.00  0.00  0.00
  SMAIN3339               1.00   0.00  0.00  0.00  0.99  0.01  0.00  0.00  0.01  0.00
  SMAIN3340               1.00   0.00  0.00  0.00  1.00  0.00  0.00  0.00  0.00  0.00
  SMAIN3341               4.46   0.00  0.00  0.00  1.00  0.00  0.00  0.00  0.00  0.00
  SMAIN3342               1.00   0.00  0.00  0.00  1.00  0.00  0.00  0.00  0.00  0.00
  SMAIN3343               1.00   0.00  0.00  0.00  1.00  0.00  0.00  0.00  0.00  0.00
  SMAIN3344               1.00   0.00  0.00  0.00  1.00  0.00  0.00  0.00  0.00  0.00
  SMAIN3345               6.07   0.00  0.00  0.00  1.00  0.00  0.00  0.00  0.00  0.00
  SMAIN3346               6.33   0.00  0.00  0.00  1.00  0.00  0.00  0.00  0.00  0.00
  SMAIN3347               1.00   0.00  0.00  0.00  1.00  0.00  0.00  0.00  0.01  0.00
  SMAIN3348               1.00   0.00  0.00  0.00  1.00  0.00  0.00  0.00  0.01  0.00
  SMAIN3349               1.00   0.00  0.00  0.00  1.00  0.00  0.00  0.00  0.01  0.00
  SMAIN3350               1.00   0.00  0.00  0.00  1.00  0.00  0.00  0.00  0.00  0.00
  SMAIN3351               1.00   0.00  0.00  0.00  1.00  0.00  0.00  0.00  0.00  0.00
  SMAIN3352               4.45   0.00  0.00  0.00  1.00  0.00  0.00  0.00  0.00  0.00
  SMAIN3353               1.00   0.00  0.00  0.00  1.00  0.00  0.00  0.00  0.00  0.00
  SMAIN3354               1.00   0.00  0.00  0.00  1.00  0.00  0.00  0.00  0.00  0.00
  SMAIN3355               1.00   0.00  0.00  0.00  1.00  0.00  0.00  0.00  0.01  0.00
  SMAIN3356               1.00   0.00  0.00  0.00  1.00  0.00  0.00  0.00  0.00  0.00
  SMAIN3358              85.86   0.00  0.02  0.00  0.18  0.80  0.00  0.00  0.00  0.00
  SMAIN3359              18.04   0.03  0.00  0.00  0.97  0.00  0.00  0.00  0.00  0.00
  SMAIN3360               1.00   0.02  0.01  0.00  0.97  0.00  0.00  0.00  0.00  0.00
  SMAIN3361               1.00   0.00  0.00  0.00  1.00  0.00  0.00  0.00  0.00  0.00
  SMAIN3362              42.26   0.00  0.00  0.00  1.00  0.00  0.00  0.00  0.00  0.00
  SMAIN3403               1.00   0.00  0.00  0.00  1.00  0.00  0.00  0.00  0.01  0.00
  SMAIN3404               1.00   0.00  0.00  0.00  1.00  0.00  0.00  0.00  0.02  0.00
  SMAIN3405               1.00   0.00  0.00  0.00  1.00  0.00  0.00  0.00  0.00  0.00
  SMAIN3406               9.10   0.00  0.00  0.00  1.00  0.00  0.00  0.00  0.00  0.00
  SMAIN3407               1.00   0.00  0.00  0.00  0.99  0.01  0.00  0.00  0.02  0.00
  
  
  *************************
  Conduit Surcharge Summary
  *************************
  
  ----------------------------------------------------------------------------
                                                           Hours        Hours 
                         --------- Hours Full --------   Above Full   Capacity
  Conduit                Both Ends  Upstream  Dnstream   Normal Flow   Limited
  ----------------------------------------------------------------------------
  SMAIN1485                  45.78     45.88     45.78      0.01         0.02
  SMAIN1486                   0.01      0.01     46.78      0.01         0.01
  SMAIN1906                  45.85     45.85     46.64     22.38        29.07
  SMAIN1907                  46.30     46.30     46.37     45.43        45.58
  SMAIN1908                  46.19     46.19     46.24     43.91         0.01
  SMAIN1909                  46.22     46.22     46.34      6.57         0.01
  SMAIN1910                  45.64     45.65     45.65     44.95        42.68
  SMAIN1911                  46.38     46.38     46.58      9.80         0.13
  SMAIN1912                  46.43     46.43     46.43     12.17         9.99
  SMAIN1913                  46.43     46.53     46.43     47.00        46.43
  SMAIN1914                  44.94     44.94     44.94     40.94        40.39
  SMAIN1915                  46.23     46.43     46.23     47.00        46.05
  SMAIN1916                  46.17     46.23     46.17     46.95        45.84
  SMAIN1917                  46.00     46.00     46.31      0.01         2.00
  SMAIN1919                  46.67     46.67     46.75      5.88         0.01
  SMAIN1920                  45.99     45.99     46.71      0.01         0.01
  SMAIN1921                  45.99     45.99     46.79      0.01         0.01
  SMAIN1923                  45.52     45.52     45.64      0.01         0.01
  SMAIN1929                  46.78     46.78     46.98      0.01         0.01
  SMAIN1930                  46.58     46.78     46.58     46.76        46.57
  SMAIN1931                  46.58     46.76     46.58     46.85        46.55
  SMAIN1933                  45.99     45.99     46.66      0.01         0.01
  SMAIN1935                  46.04     46.04     46.05     46.05        45.69
  SMAIN1936                  46.30     46.46     46.30     46.58        46.29
  SMAIN1937                  46.59     46.59     46.69      5.99         6.30
  SMAIN1939                  45.06     45.06     45.11     12.91        11.04
  SMAIN1941                  46.81     46.81     47.00     36.00        40.00
  SMAIN1942                  47.00     47.00     47.00      0.01         0.19
  SMAIN1943                  47.00     47.00     47.00      0.01         0.01
  SMAIN1944                  47.00     47.00     47.00     47.00        47.00
  SMAIN1945                  47.00     47.00     47.00      0.01         0.01
  SMAIN1946                  47.00     47.00     47.00      0.01         0.01
  SMAIN1948                  46.75     46.75     46.92     46.92         0.01
  SMAIN1950                  46.56     46.56     46.93      6.00         6.01
  SMAIN1951                  46.08     46.08     46.58     46.55         0.01
  SMAIN1952                  46.94     46.99     46.94     46.99        46.94
  SMAIN1953                  46.58     46.58     46.93      0.01         0.02
  SMAIN1954                  46.08     46.08     46.08     46.41        45.95
  SMAIN1955                  46.01     46.02     46.01     46.36        44.43
  SMAIN1956                  45.66     46.01     45.66     46.34        45.66
  SMAIN1957                  46.30     46.31     46.30     46.98        45.81
  SMAIN1958                  45.66     45.66     45.66     45.85        44.77
  SMAIN1959                  45.61     45.66     45.61     46.52        45.61
  SMAIN1960                  45.60     45.60     45.80     45.60        44.04
  SMAIN1961                  45.80     45.80     45.80     45.04        43.54
  SMAIN1962                  45.80     45.80     45.80     45.69        45.61
  SMAIN1963                  43.89     43.89     46.67     24.39        22.68
  SMAIN1964                  45.39     45.39     45.80     40.00         0.01
  SMAIN1965                  45.40     45.40     45.57      0.01         0.01
  SMAIN1966                  45.40     45.40     47.00     36.00         0.01
  SMAIN1967                  43.89     43.89     44.94      0.01         0.01
  SMAIN1968                  45.39     45.39     45.44      6.17        10.46
  SMAIN1969                  45.65     46.43     45.65     46.82        45.59
  SMAIN1970                  46.43     46.43     46.43     14.20        13.17
  SMAIN1971                  44.98     44.98     45.40     36.81         0.01
  SMAIN1972                  44.91     44.98     44.91     45.18        44.83
  SMAIN1973                  44.76     44.91     44.76     44.57        44.32
  SMAIN1974                  44.76     44.76     44.82      0.01         0.01
  SMAIN1975                  44.82     45.57     44.82      0.01         0.29
  SMAIN1976                  45.57     45.57     45.71      0.01         0.01
  SMAIN1977                  46.59     46.59     46.87     46.87         0.01
  SMAIN1978                  45.71     46.38     45.71     46.65        45.70
  SMAIN1979                  45.71     45.71     45.80     39.84        42.61
  SMAIN1980                  45.80     45.80     45.85     32.53        34.43
  SMAIN1981                   0.01     46.73      0.01      0.01         0.01
  SMAIN1982                  46.64     46.64     46.64     46.77        46.27
  SMAIN1983                  46.57     46.57     46.57      0.01         8.20
  SMAIN1984                   0.01      0.01     46.64      0.01         0.01
  SMAIN1986                  45.88     45.88     45.97      0.01         0.01
  SMAIN1987                  45.97     45.97     46.86      0.01         0.01
  SMAIN1988                  45.96     45.96     45.99      0.01         0.01
  SMAIN1989                  45.95     45.95     45.96      6.00        10.26
  SMAIN1991                  45.96     45.96     46.98      1.99         0.01
  SMAIN1992                  46.00     46.00     46.86      0.01         0.01
  SMAIN1993                  46.60     46.68     46.60     46.59        46.56
  SMAIN1994                  46.59     46.59     46.66     44.12        44.70
  SMAIN1995                  46.42     46.42     46.61     38.80         0.01
  SMAIN1996                  46.19     46.36     46.19     42.96         0.01
  SMAIN1997                  46.06     46.06     46.08      0.01         0.01
  SMAIN1998                  46.06     46.06     46.36      0.01         0.01
  SMAIN1999                  46.93     46.93     46.95      0.01         0.01
  SMAIN2000                  46.45     46.45     46.84     46.55         0.01
  SMAIN2007                  46.48     46.48     46.50      0.01         0.01
  SMAIN2008                  46.48     46.48     46.48     46.58        34.07
  SMAIN2009                  46.30     46.30     46.47     46.28         0.01
  SMAIN2010                  46.76     46.76     46.90     46.90         0.01
  SMAIN2011                  46.24     46.24     46.30     25.80         0.01
  SMAIN2012                  46.22     46.24     46.22     46.20        44.91
  SMAIN2013                  46.16     46.22     46.16     46.21        46.16
  SMAIN2014                  45.58     45.58     46.16      4.12         0.01
  SMAIN2015                  45.52     45.52     45.52      0.01         0.01
  SMAIN2016                  45.52     45.52     45.55      0.01         0.01
  SMAIN2017                  45.64     45.64     45.69     44.32        45.15
  SMAIN2018                   0.01      0.01     45.55      0.01         0.01
  SMAIN2019                  45.99     45.99     46.43      0.01         0.01
  SMAIN2020                  46.43     46.43     46.63      0.01         0.01
  SMAIN2021                  45.91     45.91     45.96     45.08         0.01
  SMAIN2022                  45.96     45.96     45.97      0.01         0.01
  SMAIN2024                   0.01      0.01     46.22      0.01         0.01
  SMAIN2037                  46.05     46.10     46.05     46.58        46.04
  SMAIN3302                  46.84     46.84     46.88      0.01         0.42
  SMAIN3307                  46.84     46.95     46.84      0.01        46.01
  SMAIN3310                  46.98     46.98     46.99      2.00         0.01
  SMAIN3313                  47.00     47.00     47.00     47.00        47.00
  SMAIN3317                  47.00     47.00     47.00      0.01         0.01
  SMAIN3318                  46.65     46.65     47.00     43.54         0.01
  SMAIN3319                  46.91     46.91     46.91     46.97        46.81
  SMAIN3320                  47.00     47.00     47.00     47.00        47.00
  SMAIN3321                  47.00     47.00     47.00      0.01         0.01
  SMAIN3322                  47.00     47.00     47.00     47.00        47.00
  SMAIN3323                  46.65     46.65     46.91      0.01         0.01
  SMAIN3324                  46.93     46.94     46.93      5.06        12.15
  SMAIN3325                  46.93     46.93     46.93      1.81         2.96
  SMAIN3326                  45.78     45.78     46.04     45.71        45.66
  SMAIN3327                  45.73     45.73     45.75     31.20         0.01
  SMAIN3328                  45.73     45.73     45.74     26.35        30.42
  SMAIN3329                  45.74     45.78     45.74     36.11         0.01
  SMAIN3330                  45.86     45.86     45.94      0.01         0.09
  SMAIN3331                  45.75     45.75     45.76     45.76         0.01
  SMAIN3332                  45.76     45.76     45.89      0.01         0.01
  SMAIN3333                  45.89     45.89     46.09      0.01         0.01
  SMAIN3335                  46.24     46.24     46.51      0.01         0.01
  SMAIN3336                  46.24     46.24     46.32      0.01         0.01
  SMAIN3337                  46.32     46.32     46.32     46.43        46.28
  SMAIN3338                  46.10     46.10     46.32      0.01         0.01
  SMAIN3339                  46.04     46.04     46.51      0.01         0.01
  SMAIN3340                  46.82     46.91     46.82     46.94        46.81
  SMAIN3341                  46.82     46.82     46.82     46.89        46.70
  SMAIN3342                  46.04     46.04     46.78      0.01         0.01
  SMAIN3343                  45.94     45.94     46.20      0.01         0.01
  SMAIN3344                  46.64     46.64     46.64      4.92         7.17
  SMAIN3345                  46.64     46.64     46.64      2.71         7.10
  SMAIN3346                  46.64     46.64     46.64     46.58        43.56
  SMAIN3347                  46.39     46.39     46.64      0.01         0.01
  SMAIN3348                  46.39     46.39     46.45      0.01         0.01
  SMAIN3349                  46.20     46.20     46.45      0.01         0.01
  SMAIN3350                  46.59     46.75     46.59     46.80        46.59
  SMAIN3351                  46.75     46.75     46.82      0.01         0.01
  SMAIN3352                  46.64     46.65     46.64     46.74        44.99
  SMAIN3353                  46.89     46.92     46.89     46.99        46.89
  SMAIN3354                  46.99     47.00     46.99     47.00        46.99
  SMAIN3355                  46.59     46.59     46.65      0.01         0.01
  SMAIN3356                  46.82     46.89     46.82     46.96        46.82
  SMAIN3358                   0.01      0.01     45.87      0.01         0.01
  SMAIN3359                  45.61     45.61     45.61      4.11        10.11
  SMAIN3360                  45.61     45.61     45.69      0.01         0.01
  SMAIN3361                  45.61     46.54     45.61      0.01         0.11
  SMAIN3362                  45.87     45.87     45.88      0.01         0.01
  SMAIN3403                  45.88     45.88     46.57     11.19         0.05
  SMAIN3404                  46.06     46.06     46.10     45.65        45.66
  SMAIN3405                  45.97     45.97     46.01     23.00         0.01
  SMAIN3406                  46.04     46.05     46.04     46.09        45.36
  SMAIN3407                  46.00     46.00     46.59      0.01         0.01
  
  
  ***************
  Pumping Summary
  ***************
  
  ---------------------------------------------------------------------------------------------------------
                                                  Min       Avg       Max     Total     Power    % Time Off
                        Percent   Number of      Flow      Flow      Flow    Volume     Usage    Pump Curve
  Pump                 Utilized   Start-Ups       GPM       GPM       GPM  10^6 gal     Kw-hr    Low   High
  ---------------------------------------------------------------------------------------------------------
  SPUMP106               100.00           1      0.00     27.25     49.50     0.078      5.70    0.0    0.0
  SPUMP112               100.00           1      0.00     11.89     21.60     0.034     17.31    0.0    0.0
  SPUMP113               100.00           1      0.00     52.32     95.04     0.150    153.20    0.0    0.0
  SPUMP116               100.00           1      0.00     23.19     42.12     0.067     63.07    0.0    0.0
  SPUMP117               100.00           1      0.00      8.03     14.58     0.023     21.78    0.0    0.0
  SPUMP118               100.00           1      0.00      2.77      5.04     0.008      6.48    0.0    0.0
  SPUMP119               100.00           1      0.00      7.13     12.96     0.020     19.69    0.0    0.0
  SPUMP120               100.00           1      0.00      5.75     10.44     0.016     16.83    0.0    0.0
  SPUMP121               100.00           1      0.00      0.99      1.80     0.003      0.36    0.0    0.0
  SPUMP139               100.00           1      0.00      5.45      9.90     0.016     12.26    0.0    0.0
  SPUMP15                100.00           1      0.00     88.78    161.28     0.255    179.63    0.0    0.0
  SPUMP151               100.00           1      0.00     15.66     28.44     0.045     60.27    0.0    0.0
  SPUMP152               100.00           1      0.00      0.99      1.80     0.003      3.67    0.0    0.0
  SPUMP153               100.00           1      0.00      1.09      1.98     0.003      9.03    0.0    0.0
  SPUMP154               100.00           1      0.00      2.58      4.68     0.007     21.74    0.0    0.0
  SPUMP157               100.00           1      0.00      0.99      1.80     0.003      2.69    0.0    0.0
  SPUMP20                100.00           1      0.00     91.46    166.14     0.262     65.68    0.0    0.0
  SPUMP5                 100.00           1      0.00     40.43     73.44     0.116      8.84    0.0    0.0
  

  Analysis begun on:  Tue Jun 23 21:19:53 2026
  Analysis ended on:  Tue Jun 23 21:19:55 2026
  Total elapsed time: 00:00:02