
  EPA STORM WATER MANAGEMENT MODEL - VERSION 5.2 (Build 5.2.4)
  ------------------------------------------------------------

  Scenario Run :  SCN-32 
  WARNING 05: minimum slope used for Conduit 11239101.1
  WARNING 05: minimum slope used for Conduit 12230101.1
  WARNING 05: minimum slope used for Conduit 12230202.1
  WARNING 05: minimum slope used for Conduit 12230309.1
  WARNING 04: minimum elevation drop used for Conduit 12232203.1
  WARNING 05: minimum slope used for Conduit 12232203.1
  WARNING 04: minimum elevation drop used for Conduit 12232301.1
  WARNING 05: minimum slope used for Conduit 12232301.1
  WARNING 05: minimum slope used for Conduit 12232302.1
  WARNING 03: negative offset ignored for Link 12233005.1
  WARNING 05: minimum slope used for Conduit 12240301.1
  WARNING 05: minimum slope used for Conduit 12241001.1
  WARNING 04: minimum elevation drop used for Conduit 12242301.1
  WARNING 05: minimum slope used for Conduit 12242301.1
  WARNING 05: minimum slope used for Conduit 12248703.1
  WARNING 05: minimum slope used for Conduit 12248704.1
  WARNING 02: maximum depth increased for Node 12223911
  
  ****************
  Analysis Options
  ****************
  Flow Units ............... CFS
  Process Models:
    Rainfall/Runoff ........ YES
    RDII ................... NO
    Snowmelt ............... NO
    Groundwater ............ NO
    Flow Routing ........... YES
    Ponding Allowed ........ YES
    Water Quality .......... NO
  Infiltration Method ...... HORTON
  Flow Routing Method ...... DYNWAVE
  Surcharge Method ......... EXTRAN
  Starting Date ............ 12/30/2001 00:00:00
  Ending Date .............. 12/31/2001 23:55:00
  Antecedent Dry Days ...... 0.0
  Report Time Step ......... 00:05:00
  Wet Time Step ............ 00:05:00
  Dry Time Step ............ 00:05:00
  Routing Time Step ........ 30.00 sec
  Variable Time Step ....... YES
  Maximum Trials ........... 8
  Number of Threads ........ 1
  Head Tolerance ........... 0.005000 ft
  
  
  **************************        Volume         Depth
  Runoff Quantity Continuity     acre-feet        inches
  **************************     ---------       -------
  Total Precipitation ......         1.932         0.232
  Evaporation Loss .........         0.000         0.000
  Infiltration Loss ........         0.348         0.042
  Surface Runoff ...........         1.433         0.172
  Final Storage ............         0.173         0.021
  Continuity Error (%) .....        -1.146
  
  
  **************************        Volume        Volume
  Flow Routing Continuity        acre-feet      10^6 gal
  **************************     ---------     ---------
  Dry Weather Inflow .......         1.036         0.338
  Wet Weather Inflow .......         1.430         0.466
  Groundwater Inflow .......         0.000         0.000
  RDII Inflow ..............         0.000         0.000
  External Inflow ..........         0.000         0.000
  External Outflow .........         2.319         0.756
  Flooding Loss ............         0.000         0.000
  Evaporation Loss .........         0.000         0.000
  Exfiltration Loss ........         0.000         0.000
  Initial Stored Volume ....         0.003         0.001
  Final Stored Volume ......         0.094         0.031
  Continuity Error (%) .....         2.248
  
  
  *************************
  Highest Continuity Errors
  *************************
  Node 12223913 (76.08%)
  Node 12224506 (39.54%)
  Node 12224601 (7.25%)
  Node 12230202 (3.97%)
  Node 12224702 (3.17%)
  
  
  ***************************
  Time-Step Critical Elements
  ***************************
  Link 12233005.1 (54.99%)
  Link 12241201.1 (22.69%)
  Link 12241203.1 (7.48%)
  Link 12242301.1 (3.37%)
  Link 12232902.1 (1.91%)
  
  
  ********************************
  Highest Flow Instability Indexes
  ********************************
  Link 12223913.1 (91)
  Link 12241201.1 (18)
  Link 12241203.1 (16)
  Link 12241206.1 (15)
  Link 12241202.1 (14)
  
  
  *********************************
  Most Frequent Nonconverging Nodes
  *********************************
  Node 12223912 (38.69%)
  Node 12230003 (38.69%)
  Node 12232718 (38.69%)
  Node 12232912 (38.69%)
  Node 12232914 (38.69%)
  
  
  *************************
  Routing Time Step Summary
  *************************
  Minimum Time Step           :     0.74 sec
  Average Time Step           :    15.77 sec
  Maximum Time Step           :    30.00 sec
  % of Time in Steady State   :     0.00
  Average Iterations per Step :     4.98
  % of Steps Not Converging   :    38.69
  Time Step Frequencies       :
     30.000 -  3.817 sec      :    98.13 %
      3.817 -  0.486 sec      :     1.87 %
      0.486 -  0.062 sec      :     0.00 %
      0.062 -  0.008 sec      :     0.00 %
      0.008 -  0.001 sec      :     0.00 %
  
  
  ***************************
  Subcatchment Runoff Summary
  ***************************
  
  ------------------------------------------------------------------------------------------------------------------------------
                            Total      Total      Total      Total     Imperv       Perv      Total       Total     Peak  Runoff
                           Precip      Runon       Evap      Infil     Runoff     Runoff     Runoff      Runoff   Runoff   Coeff
  Subcatchment                 in         in         in         in         in         in         in    10^6 gal      CFS
  ------------------------------------------------------------------------------------------------------------------------------
  NO12223602                 0.23       0.00       0.00       0.22       0.01       0.00       0.01        0.00     0.02   0.043
  NO12224602                 0.23       0.00       0.00       0.22       0.01       0.00       0.01        0.00     0.02   0.048
  NO12224801                 0.23       0.00       0.00       0.00       0.20       0.00       0.20        0.01     0.14   0.844
  NO12225701                 0.23       0.00       0.00       0.00       0.21       0.00       0.21        0.01     0.08   0.892
  NO12225702                 0.23       0.00       0.00       0.00       0.20       0.00       0.20        0.01     0.12   0.842
  NO12226802                 0.23       0.00       0.00       0.00       0.23       0.00       0.23        0.01     0.13   0.991
  NO12226901                 0.23       0.00       0.00       0.00       0.23       0.00       0.23        0.01     0.12   0.971
  NO12232709                 0.23       0.00       0.00       0.22       0.02       0.00       0.02        0.00     0.02   0.070
  NO12232906                 0.23       0.00       0.00       0.00       0.18       0.00       0.18        0.01     0.11   0.782
  NO12233001                 0.23       0.00       0.00       0.00       0.24       0.00       0.24        0.00     0.03   1.014
  NO12233302                 0.23       0.00       0.00       0.00       0.21       0.00       0.21        0.01     0.08   0.894
  NO12233306                 0.23       0.00       0.00       0.00       0.21       0.00       0.21        0.01     0.10   0.896
  NO12233401                 0.23       0.00       0.00       0.00       0.22       0.00       0.22        0.01     0.10   0.964
  NO12233601                 0.23       0.00       0.00       0.00       0.23       0.00       0.23        0.00     0.05   1.010
  NO12233602                 0.23       0.00       0.00       0.00       0.23       0.00       0.23        0.01     0.12   0.973
  NO12233703                 0.23       0.00       0.00       0.00       0.23       0.00       0.23        0.00     0.07   0.983
  NO12233902                 0.23       0.00       0.00       0.00       0.22       0.00       0.22        0.00     0.04   0.955
  NO12234006                 0.23       0.00       0.00       0.00       0.23       0.00       0.23        0.00     0.05   1.007
  NO12234011                 0.23       0.00       0.00       0.22       0.01       0.00       0.01        0.00     0.00   0.043
  NO12234022                 0.23       0.00       0.00       0.00       0.00       0.00       0.00        0.00     0.00   0.000
  NO12234301                 0.23       0.00       0.00       0.00       0.23       0.00       0.23        0.01     0.15   0.994
  NO12234302                 0.23       0.00       0.00       0.00       0.23       0.00       0.23        0.00     0.05   0.980
  NO12234503                 0.23       0.00       0.00       0.00       0.23       0.00       0.23        0.01     0.15   0.971
  NO12234913                 0.23       0.00       0.00       0.00       0.22       0.00       0.22        0.01     0.18   0.965
  NO12235001                 0.23       0.00       0.00       0.00       0.23       0.00       0.23        0.00     0.07   1.001
  NO12235401                 0.23       0.00       0.00       0.00       0.23       0.00       0.23        0.00     0.08   0.993
  NO12235402                 0.23       0.00       0.00       0.00       0.23       0.00       0.23        0.00     0.05   1.010
  NO12235601                 0.23       0.00       0.00       0.00       0.23       0.00       0.23        0.01     0.13   0.988
  NO12235702                 0.23       0.00       0.00       0.00       0.23       0.00       0.23        0.01     0.19   0.976
  NO12236401                 0.23       0.00       0.00       0.00       0.23       0.00       0.23        0.01     0.14   0.972
  NO12236501                 0.23       0.00       0.00       0.00       0.23       0.00       0.23        0.01     0.10   0.981
  NO12236502                 0.23       0.00       0.00       0.00       0.23       0.00       0.23        0.00     0.04   0.977
  NO12236901                 0.23       0.00       0.00       0.00       0.23       0.00       0.23        0.00     0.08   0.971
  NO12237502                 0.23       0.00       0.00       0.00       0.23       0.00       0.23        0.00     0.05   0.997
  NO12238602                 0.23       0.00       0.00       0.00       0.23       0.00       0.23        0.00     0.07   0.986
  NO12238801                 0.23       0.00       0.00       0.22       0.02       0.00       0.02        0.00     0.09   0.070
  NO12239301                 0.23       0.00       0.00       0.22       0.01       0.00       0.01        0.00     0.04   0.047
  NO12239501                 0.23       0.00       0.00       0.00       0.22       0.00       0.22        0.00     0.07   0.957
  NO12239502                 0.23       0.00       0.00       0.00       0.22       0.00       0.22        0.01     0.09   0.968
  NO12239503                 0.23       0.00       0.00       0.00       0.23       0.00       0.23        0.00     0.04   0.990
  NO12240301                 0.23       0.00       0.00       0.00       0.01       0.00       0.01        0.00     0.01   0.039
  NO12241002                 0.23       0.00       0.00       0.00       0.20       0.00       0.20        0.00     0.05   0.861
  NO12241202                 0.23       0.00       0.00       0.00       0.16       0.00       0.16        0.01     0.09   0.686
  NO12241402                 0.23       0.00       0.00       0.00       0.22       0.00       0.22        0.01     0.11   0.926
  NO12241501                 0.23       0.00       0.00       0.00       0.21       0.00       0.21        0.00     0.06   0.914
  NO12242003                 0.23       0.00       0.00       0.00       0.20       0.00       0.20        0.01     0.05   0.877
  NO12242201                 0.23       0.00       0.00       0.00       0.21       0.00       0.21        0.01     0.06   0.896
  NO12242304                 0.23       0.00       0.00       0.00       0.22       0.00       0.22        0.01     0.10   0.968
  NO12243001                 0.23       0.00       0.00       0.00       0.22       0.00       0.22        0.00     0.07   0.953
  NO12243201                 0.23       0.00       0.00       0.00       0.23       0.00       0.23        0.00     0.07   0.976
  NO12243305                 0.23       0.00       0.00       0.00       0.22       0.00       0.22        0.01     0.13   0.937
  NO12243401                 0.23       0.00       0.00       0.00       0.22       0.00       0.22        0.01     0.13   0.939
  NO12244001                 0.23       0.00       0.00       0.00       0.22       0.00       0.22        0.00     0.08   0.952
  NO12244005                 0.23       0.00       0.00       0.00       0.21       0.00       0.21        0.01     0.09   0.909
  NO12244202                 0.23       0.00       0.00       0.00       0.22       0.00       0.22        0.00     0.07   0.968
  NO12244403                 0.23       0.00       0.00       0.00       0.22       0.00       0.22        0.00     0.07   0.947
  NO12244502                 0.23       0.00       0.00       0.00       0.22       0.00       0.22        0.00     0.08   0.930
  NO12244601                 0.23       0.00       0.00       0.00       0.22       0.00       0.22        0.00     0.07   0.936
  NO12245201                 0.23       0.00       0.00       0.00       0.22       0.00       0.22        0.01     0.15   0.961
  NO12245602                 0.23       0.00       0.00       0.00       0.22       0.00       0.22        0.01     0.14   0.939
  NO12245701                 0.23       0.00       0.00       0.00       0.21       0.00       0.21        0.01     0.11   0.920
  NO12246201                 0.23       0.00       0.00       0.00       0.18       0.00       0.18        0.01     0.12   0.767
  NO12246202                 0.23       0.00       0.00       0.00       0.22       0.00       0.22        0.01     0.12   0.947
  NO12246303                 0.23       0.00       0.00       0.00       0.21       0.00       0.21        0.00     0.06   0.891
  NO12246404                 0.23       0.00       0.00       0.00       0.22       0.00       0.22        0.00     0.07   0.927
  NO12246501                 0.23       0.00       0.00       0.00       0.21       0.00       0.21        0.00     0.04   0.923
  NO12246503                 0.23       0.00       0.00       0.00       0.20       0.00       0.20        0.00     0.03   0.877
  NO12246602                 0.23       0.00       0.00       0.00       0.21       0.00       0.21        0.00     0.03   0.920
  NO12247303                 0.23       0.00       0.00       0.00       0.22       0.00       0.22        0.01     0.10   0.927
  NO12247402                 0.23       0.00       0.00       0.00       0.22       0.00       0.22        0.00     0.06   0.935
  NO12247501                 0.23       0.00       0.00       0.00       0.22       0.00       0.22        0.00     0.05   0.945
  NO12247704                 0.23       0.00       0.00       0.00       0.17       0.00       0.17        0.00     0.05   0.723
  NO12248502                 0.23       0.00       0.00       0.00       0.21       0.00       0.21        0.00     0.03   0.897
  NO12248505                 0.23       0.00       0.00       0.00       0.22       0.00       0.22        0.00     0.06   0.939
  NO12248702                 0.23       0.00       0.00       0.00       0.19       0.00       0.19        0.00     0.02   0.838
  NO12248703                 0.23       0.00       0.00       0.00       0.20       0.00       0.20        0.00     0.05   0.879
  NO12249704                 0.23       0.00       0.00       0.00       0.23       0.00       0.23        0.00     0.05   0.987
  NO12249803                 0.23       0.00       0.00       0.00       0.17       0.00       0.17        0.00     0.05   0.752
  NO13230603                 0.23       0.00       0.00       0.00       0.23       0.00       0.23        0.00     0.05   0.983
  NO13230701                 0.23       0.00       0.00       0.00       0.22       0.00       0.22        0.01     0.10   0.967
  NO13230803                 0.23       0.00       0.00       0.00       0.22       0.00       0.22        0.01     0.09   0.944
  NO13231601                 0.23       0.00       0.00       0.00       0.22       0.00       0.22        0.01     0.11   0.957
  NO13231602                 0.23       0.00       0.00       0.00       0.22       0.00       0.22        0.01     0.11   0.953
  NO13232701                 0.23       0.00       0.00       0.00       0.22       0.00       0.22        0.01     0.11   0.958
  NO13233503                 0.23       0.00       0.00       0.00       0.22       0.00       0.22        0.01     0.10   0.957
  NO13233601                 0.23       0.00       0.00       0.00       0.22       0.00       0.22        0.01     0.09   0.967
  NO13233804                 0.23       0.00       0.00       0.00       0.22       0.00       0.22        0.01     0.11   0.967
  NO13234601                 0.23       0.00       0.00       0.00       0.22       0.00       0.22        0.00     0.08   0.952
  NO13234803                 0.23       0.00       0.00       0.00       0.22       0.00       0.22        0.01     0.13   0.965
  NO13237501                 0.23       0.00       0.00       0.00       0.23       0.00       0.23        0.00     0.10   0.998
  NO13237601                 0.23       0.00       0.00       0.00       0.22       0.00       0.22        0.00     0.06   0.947
  NO13240602                 0.23       0.00       0.00       0.00       0.21       0.00       0.21        0.00     0.03   0.910
  
  
  ******************
  Node Depth Summary
  ******************
  
  ---------------------------------------------------------------------------------
                                 Average  Maximum  Maximum  Time of Max    Reported
                                   Depth    Depth      HGL   Occurrence   Max Depth
  Node                 Type         Feet     Feet     Feet  days hr:min        Feet
  ---------------------------------------------------------------------------------
  11239101             JUNCTION     0.00     0.00     6.53     0  00:00        0.00
  12223602             JUNCTION     0.01     0.03    72.18     0  01:25        0.03
  12223801             JUNCTION     0.08     0.18    13.56     0  05:35        0.18
  12223802             JUNCTION     0.06     0.12    23.09     0  05:35        0.12
  12223803             JUNCTION     0.08     0.17    27.22     0  05:35        0.17
  12223906             JUNCTION     0.08     0.18    11.41     0  05:36        0.18
  12223907             JUNCTION     0.11     0.24     9.10     0  05:36        0.23
  12223908             JUNCTION     0.11     0.23     8.03     0  05:37        0.23
  12223910             JUNCTION     0.50     0.90     7.71     0  02:28        0.90
  12223911             JUNCTION     0.18     0.46     7.18     0  02:35        0.46
  12223913             JUNCTION     4.44     7.38     6.66     0  05:46        7.27
  12224506             JUNCTION     1.10     3.62    29.87     0  05:11        2.30
  12224601             JUNCTION     0.02     0.07   102.99     0  01:28        0.05
  12224602             JUNCTION     0.01     0.03    81.69     0  01:26        0.03
  12224701             JUNCTION     0.02     0.04    84.99     0  01:30        0.04
  12224702             JUNCTION     0.01     0.05    99.28     0  01:27        0.04
  12224801             JUNCTION     0.24     0.30    77.00     0  05:33        0.30
  12224901             JUNCTION     0.08     0.17    37.27     0  05:34        0.17
  12224902             JUNCTION     0.04     0.08    74.81     0  05:33        0.08
  12224903             JUNCTION     0.06     0.13    70.39     0  05:33        0.13
  12225701             JUNCTION     0.07     0.17   132.34     0  05:31        0.16
  12225702             JUNCTION     0.06     0.13   134.29     0  05:30        0.13
  12226802             JUNCTION     0.02     0.07   168.03     0  01:25        0.07
  12226803             JUNCTION     0.06     0.13   127.22     0  05:33        0.13
  12226901             JUNCTION     0.05     0.13   115.00     0  05:31        0.13
  12230101             JUNCTION     0.51     0.83     5.13     0  05:58        0.82
  12230103             JUNCTION     0.00     0.00     6.50     0  00:00        0.00
  12230104             JUNCTION     0.35     0.64     4.83     0  05:59        0.63
  12230201             JUNCTION     0.36     0.60     5.13     0  05:55        0.59
  12230202             JUNCTION     0.45     0.77     5.13     0  05:57        0.76
  12230309             JUNCTION     0.32     0.47     5.13     0  06:00        0.47
  12232201             JUNCTION     0.47     0.83     8.40     0  05:52        0.83
  12232202             JUNCTION     0.50     0.89     8.68     0  02:19        0.89
  12232203             JUNCTION     0.62     0.94     8.87     0  05:49        0.94
  12232204             JUNCTION     0.55     0.83     8.75     0  02:19        0.83
  12232301             JUNCTION     0.78     1.18     9.11     0  05:48        1.18
  12232302             JUNCTION     0.82     1.26     9.20     0  05:48        1.26
  12232304             JUNCTION     0.37     0.76     9.26     0  05:48        0.76
  12232402             JUNCTION     0.54     0.93     9.75     0  05:45        0.93
  12232501             JUNCTION     0.72     1.03    10.18     0  05:44        1.03
  12232502             JUNCTION     0.44     0.68    10.96     0  05:43        0.68
  12232504             JUNCTION     0.57     0.91    10.24     0  05:44        0.91
  12232602             JUNCTION     0.40     0.74    11.60     0  05:43        0.74
  12232703             JUNCTION     0.50     0.91    12.03     0  05:42        0.91
  12232706             JUNCTION     0.25     0.50    12.56     0  05:39        0.50
  12232707             JUNCTION     0.43     0.76    13.07     0  05:38        0.76
  12232708             JUNCTION     0.09     0.22    18.88     0  01:55        0.22
  12232709             JUNCTION     0.90     1.10    13.79     0  05:41        1.10
  12232715             JUNCTION     0.24     0.43    12.11     0  05:40        0.43
  12232716             JUNCTION     0.61     0.99    12.47     0  05:39        0.99
  12232717             JUNCTION     0.00     0.00    14.65     0  00:00        0.00
  12232801             JUNCTION     0.27     0.49    13.91     0  05:48        0.49
  12232802             JUNCTION     0.43     0.63    14.53     0  05:52        0.63
  12232805             JUNCTION     0.11     0.22    30.29     0  02:00        0.22
  12232902             JUNCTION     0.26     0.54    35.09     0  01:59        0.54
  12232903             JUNCTION     0.18     0.31    15.06     0  05:50        0.31
  12232905             JUNCTION     0.14     0.29    34.68     0  01:59        0.29
  12232906             JUNCTION     0.12     0.22    35.95     0  05:35        0.22
  12232910             JUNCTION     0.08     0.17    43.45     0  01:59        0.17
  12232913             JUNCTION     1.06     1.30    14.59     0  05:52        1.30
  12233001             JUNCTION     0.01     0.04    30.22     0  01:25        0.03
  12233002             JUNCTION     0.01     0.03    18.67     0  01:27        0.03
  12233003             JUNCTION     0.01     0.04    20.00     0  01:26        0.03
  12233005             JUNCTION     1.15     1.59     7.77     0  02:29        1.59
  12233006             JUNCTION     0.70     1.15     7.79     0  02:29        1.15
  12233010             JUNCTION     1.30     1.73     7.77     0  02:29        1.73
  12233301             JUNCTION     0.08     0.19    42.81     0  01:52        0.19
  12233302             JUNCTION     0.07     0.17    43.15     0  01:50        0.17
  12233303             JUNCTION     0.06     0.17    41.87     0  01:51        0.17
  12233306             JUNCTION     0.04     0.11    43.71     0  01:50        0.11
  12233401             JUNCTION     0.04     0.10    39.91     0  01:51        0.09
  12233402             JUNCTION     0.05     0.11    42.30     0  05:32        0.11
  12233601             JUNCTION     0.01     0.04    33.54     0  01:26        0.03
  12233602             JUNCTION     0.05     0.14    63.59     0  01:50        0.14
  12233603             JUNCTION     0.04     0.12    74.05     0  01:51        0.12
  12233701             JUNCTION     0.12     0.30    45.20     0  01:55        0.30
  12233702             JUNCTION     0.19     0.51    47.72     0  01:56        0.50
  12233703             JUNCTION     0.10     0.24    67.20     0  01:54        0.24
  12233901             JUNCTION     0.08     0.18    52.65     0  01:58        0.18
  12233902             JUNCTION     0.11     0.25    54.39     0  01:58        0.25
  12233903             JUNCTION     0.10     0.23    60.27     0  01:58        0.23
  12233907             JUNCTION     0.08     0.19    71.30     0  01:58        0.19
  12234006             JUNCTION     0.01     0.05    68.91     0  01:25        0.04
  12234010             JUNCTION     0.02     0.04    44.88     0  22:42        0.03
  12234011             JUNCTION     0.03     0.05    46.25     0  22:41        0.05
  12234013             JUNCTION     0.01     0.04    46.60     0  01:26        0.04
  12234022             JUNCTION     0.10     0.24    74.02     0  05:32        0.23
  12234301             JUNCTION     0.05     0.13    73.00     0  01:50        0.13
  12234302             JUNCTION     0.05     0.15    55.42     0  01:50        0.15
  12234503             JUNCTION     0.04     0.12   117.61     0  01:50        0.12
  12234701             JUNCTION     0.09     0.23    75.65     0  01:54        0.23
  12234702             JUNCTION     0.06     0.15    77.05     0  01:54        0.15
  12234913             JUNCTION     0.05     0.11    94.32     0  01:50        0.10
  12235001             JUNCTION     0.06     0.14   102.79     0  05:31        0.13
  12235401             JUNCTION     0.04     0.11   101.05     0  01:51        0.11
  12235402             JUNCTION     0.04     0.11   130.36     0  01:51        0.10
  12235601             JUNCTION     0.08     0.20   109.74     0  01:54        0.20
  12235702             JUNCTION     0.04     0.10   141.43     0  01:50        0.10
  12235901             JUNCTION     0.07     0.17   131.87     0  01:57        0.16
  12236401             JUNCTION     0.05     0.12   160.61     0  01:50        0.12
  12236501             JUNCTION     0.03     0.08   148.47     0  01:50        0.08
  12236502             JUNCTION     0.05     0.14   149.70     0  01:51        0.14
  12236901             JUNCTION     0.07     0.19   143.02     0  01:57        0.19
  12236902             JUNCTION     0.08     0.19   150.70     0  01:57        0.19
  12237401             JUNCTION     0.03     0.08   173.87     0  01:53        0.08
  12237502             JUNCTION     0.07     0.18   188.66     0  01:53        0.18
  12238301             JUNCTION     0.04     0.10   185.77     0  01:52        0.10
  12238602             JUNCTION     0.07     0.19   211.62     0  01:53        0.19
  12238801             JUNCTION     0.06     0.16   191.21     0  01:55        0.16
  12238802             JUNCTION     0.07     0.19   197.81     0  01:55        0.19
  12239301             JUNCTION     0.02     0.06   214.72     0  01:25        0.05
  12239501             JUNCTION     0.03     0.08   214.09     0  01:50        0.08
  12239502             JUNCTION     0.02     0.07   240.53     0  01:50        0.07
  12239503             JUNCTION     0.03     0.08   224.99     0  01:50        0.08
  12240301             JUNCTION     0.12     0.82    20.11     0  05:45        0.81
  12241001             JUNCTION     0.48     0.79    15.79     0  05:49        0.79
  12241002             JUNCTION     0.32     0.57    16.85     0  05:48        0.57
  12241003             JUNCTION     0.36     0.50    16.52     0  05:48        0.49
  12241104             JUNCTION     0.26     0.45    18.42     0  05:45        0.45
  12241201             JUNCTION     0.67     1.96    20.00     0  05:44        1.96
  12241202             JUNCTION     0.57     1.82    20.07     0  05:46        1.81
  12241203             JUNCTION     0.34     1.44    20.08     0  05:44        1.44
  12241206             JUNCTION     0.37     1.45    20.09     0  05:44        1.45
  12241208             JUNCTION     0.68     1.97    19.97     0  05:44        1.97
  12241301             JUNCTION     0.14     0.28    29.55     0  01:57        0.28
  12241302             JUNCTION     0.25     0.98    20.10     0  05:44        0.98
  12241303             JUNCTION     0.36     1.37    20.09     0  05:44        1.36
  12241304             JUNCTION     0.23     0.50    31.28     0  01:56        0.49
  12241401             JUNCTION     0.23     0.29    33.94     0  01:51        0.28
  12241402             JUNCTION     0.05     0.13    34.19     0  01:51        0.13
  12241404             JUNCTION     0.03     0.08    38.93     0  01:51        0.08
  12241501             JUNCTION     0.03     0.09    41.17     0  01:50        0.09
  12242001             JUNCTION     0.10     0.22    36.61     0  01:55        0.22
  12242002             JUNCTION     0.20     0.28    38.15     0  01:54        0.28
  12242003             JUNCTION     0.44     0.51    39.64     0  01:54        0.50
  12242201             JUNCTION     0.06     0.15    46.24     0  01:52        0.14
  12242204             JUNCTION     0.04     0.10    50.46     0  01:50        0.10
  12242301             JUNCTION     0.38     0.74    31.52     0  05:36        0.73
  12242302             JUNCTION     0.27     0.45    32.06     0  05:35        0.45
  12242304             JUNCTION     0.12     0.24    50.34     0  05:35        0.24
  12242306             JUNCTION     0.17     0.35    32.49     0  05:35        0.35
  12243001             JUNCTION     0.03     0.09    92.68     0  01:50        0.09
  12243103             JUNCTION     0.03     0.07    74.63     0  01:51        0.07
  12243201             JUNCTION     0.04     0.10    58.84     0  01:50        0.10
  12243301             JUNCTION     0.13     0.28    61.34     0  05:35        0.28
  12243303             JUNCTION     0.06     0.14    63.32     0  01:52        0.14
  12243305             JUNCTION     0.15     0.31    65.59     0  05:35        0.31
  12243401             JUNCTION     0.06     0.16    69.52     0  01:52        0.16
  12243501             JUNCTION     0.05     0.13    83.66     0  01:52        0.12
  12244001             JUNCTION     0.07     0.17    96.85     0  01:58        0.17
  12244005             JUNCTION     0.04     0.08    91.91     0  01:50        0.08
  12244202             JUNCTION     0.05     0.13    78.69     0  01:50        0.13
  12244301             JUNCTION     0.04     0.09    79.24     0  01:52        0.09
  12244302             JUNCTION     0.04     0.09    75.22     0  01:53        0.09
  12244303             JUNCTION     0.07     0.18    70.50     0  01:51        0.18
  12244402             JUNCTION     0.12     0.24    76.30     0  05:35        0.24
  12244403             JUNCTION     0.13     0.29    80.21     0  05:35        0.29
  12244502             JUNCTION     0.09     0.18    92.39     0  05:34        0.18
  12244601             JUNCTION     0.06     0.16    89.69     0  01:51        0.15
  12245201             JUNCTION     0.04     0.10    92.17     0  01:50        0.10
  12245301             JUNCTION     0.05     0.11    87.76     0  01:51        0.11
  12245402             JUNCTION     0.10     0.23    84.99     0  05:34        0.23
  12245403             JUNCTION     0.13     0.27    83.83     0  05:35        0.27
  12245405             JUNCTION     0.06     0.15    88.00     0  01:52        0.14
  12245602             JUNCTION     0.08     0.16   105.17     0  05:35        0.16
  12245701             JUNCTION     0.05     0.13    99.38     0  01:51        0.13
  12246201             JUNCTION     0.06     0.14    93.70     0  05:30        0.14
  12246202             JUNCTION     0.04     0.10   105.21     0  01:50        0.10
  12246303             JUNCTION     0.09     0.20    87.11     0  05:35        0.20
  12246401             JUNCTION     0.03     0.06    91.44     0  05:30        0.06
  12246404             JUNCTION     0.06     0.14    94.32     0  01:51        0.14
  12246501             JUNCTION     0.03     0.07   108.30     0  01:50        0.07
  12246503             JUNCTION     0.03     0.06    93.20     0  01:50        0.06
  12246601             JUNCTION     0.09     0.18   107.93     0  05:38        0.18
  12246602             JUNCTION     0.02     0.06   109.94     0  01:50        0.06
  12247201             JUNCTION     0.08     0.18    91.44     0  05:34        0.18
  12247303             JUNCTION     0.04     0.11    97.70     0  01:52        0.11
  12247402             JUNCTION     0.05     0.12    95.92     0  01:52        0.12
  12247403             JUNCTION     0.04     0.10    99.40     0  01:53        0.10
  12247405             JUNCTION     0.03     0.07   104.83     0  01:54        0.07
  12247501             JUNCTION     0.03     0.07   104.04     0  01:50        0.07
  12247704             JUNCTION     0.08     0.16   111.41     0  05:36        0.16
  12248401             JUNCTION     0.02     0.06   112.64     0  01:53        0.06
  12248402             JUNCTION     0.02     0.06   110.69     0  01:55        0.06
  12248502             JUNCTION     0.03     0.07   116.18     0  01:50        0.07
  12248504             JUNCTION     0.05     0.13   113.85     0  01:52        0.12
  12248505             JUNCTION     0.03     0.08   117.34     0  01:51        0.08
  12248701             JUNCTION     0.07     0.15   114.09     0  05:36        0.15
  12248702             JUNCTION     0.03     0.06   116.17     0  05:30        0.06
  12248703             JUNCTION     0.11     0.24   114.31     0  05:34        0.24
  12248704             JUNCTION     0.14     0.26   114.30     0  05:35        0.26
  12248803             JUNCTION     0.05     0.09   117.49     0  05:33        0.09
  12249603             JUNCTION     0.02     0.04   140.88     0  01:53        0.04
  12249605             JUNCTION     0.01     0.03   143.48     0  01:53        0.03
  12249703             JUNCTION     0.03     0.07   117.49     0  01:52        0.07
  12249704             JUNCTION     0.03     0.07   127.39     0  01:25        0.07
  12249801             JUNCTION     0.03     0.09   119.09     0  01:26        0.09
  12249803             JUNCTION     0.05     0.11   119.83     0  05:30        0.11
  13230603             JUNCTION     0.06     0.16   255.33     0  01:52        0.16
  13230605             JUNCTION     0.04     0.11   258.81     0  01:52        0.11
  13230701             JUNCTION     0.07     0.18   245.58     0  01:52        0.18
  13230803             JUNCTION     0.08     0.21   212.00     0  01:54        0.21
  13231601             JUNCTION     0.05     0.13   283.88     0  01:51        0.12
  13231602             JUNCTION     0.05     0.13   269.87     0  01:51        0.13
  13231802             JUNCTION     0.02     0.07   234.94     0  01:51        0.07
  13231803             JUNCTION     0.07     0.19   229.81     0  01:53        0.18
  13232505             JUNCTION     0.03     0.09   298.97     0  01:52        0.09
  13232602             JUNCTION     0.04     0.11   286.45     0  01:51        0.10
  13232701             JUNCTION     0.02     0.07   265.13     0  01:50        0.07
  13232702             JUNCTION     0.03     0.08   254.31     0  01:50        0.08
  13232804             JUNCTION     0.03     0.08   244.80     0  01:50        0.08
  13233503             JUNCTION     0.03     0.09   326.98     0  01:50        0.09
  13233601             JUNCTION     0.04     0.12   293.29     0  01:50        0.12
  13233801             JUNCTION     0.05     0.15   252.54     0  01:52        0.14
  13233804             JUNCTION     0.06     0.15   274.22     0  01:51        0.15
  13234601             JUNCTION     0.03     0.08   309.54     0  01:50        0.08
  13234803             JUNCTION     0.05     0.15   296.21     0  01:51        0.15
  13235703             JUNCTION     0.03     0.10   312.73     0  01:52        0.09
  13236603             JUNCTION     0.03     0.10   358.31     0  01:51        0.10
  13237501             JUNCTION     0.02     0.08   413.11     0  01:25        0.08
  13237601             JUNCTION     0.03     0.09   364.72     0  01:50        0.09
  13240601             JUNCTION     0.02     0.05   144.44     0  01:51        0.05
  13240602             JUNCTION     0.03     0.08   147.64     0  01:50        0.08
  DUMWBST1             JUNCTION     0.00     0.00    34.81     0  00:00        0.00
  12223912             OUTFALL      0.00     0.00     8.38     0  00:00        0.00
  12230003             OUTFALL      0.25     0.51     4.64     0  05:59        0.50
  12232718             OUTFALL      0.00     0.00    14.40     0  00:00        0.00
  12232912             OUTFALL      0.00     0.00     9.81     0  00:00        0.00
  12232914             OUTFALL      0.00     0.00    16.37     0  00:00        0.00
  12232915             OUTFALL      0.00     0.00    17.36     0  00:00        0.00
  12240302             OUTFALL      0.00     0.12    20.10     0  05:44        0.12
  O1                   OUTFALL      0.00     0.00     8.38     0  00:00        0.00
  12223902             STORAGE      5.04     7.91     6.60     0  05:46        7.88
  12230102             STORAGE      0.37     0.69     5.13     0  05:59        0.68
  
  
  *******************
  Node Inflow Summary
  *******************
  
  -------------------------------------------------------------------------------------------------
                                  Maximum  Maximum                  Lateral       Total        Flow
                                  Lateral    Total  Time of Max      Inflow      Inflow     Balance
                                   Inflow   Inflow   Occurrence      Volume      Volume       Error
  Node                 Type           CFS      CFS  days hr:min    10^6 gal    10^6 gal     Percent
  -------------------------------------------------------------------------------------------------
  11239101             JUNCTION      0.00     0.00     0  00:00           0           0       0.000 gal
  12223602             JUNCTION      0.02     0.02     0  01:25    0.000542    0.000542       0.063
  12223801             JUNCTION      0.00     0.51     0  05:35           0      0.0702       0.051
  12223802             JUNCTION      0.00     0.51     0  05:35           0      0.0702       0.026
  12223803             JUNCTION      0.00     0.51     0  05:34           0      0.0703       0.048
  12223906             JUNCTION      0.00     0.51     0  05:36           0      0.0702       0.035
  12223907             JUNCTION      0.00     0.51     0  05:36           0      0.0702       0.050
  12223908             JUNCTION      0.00     0.51     0  05:37           0      0.0701       0.015
  12223910             JUNCTION      0.00     3.39     0  02:32           0       0.772       0.118
  12223911             JUNCTION      0.00     3.41     0  02:32           0       0.771       0.460
  12223913             JUNCTION      0.00     0.03     0  00:49           0     0.00217     318.137
  12224506             JUNCTION      0.00     0.03     0  01:26           0     0.00301      65.385
  12224601             JUNCTION      0.00     0.06     0  00:10           0     0.00182       7.811
  12224602             JUNCTION      0.02     0.02     0  01:25      0.0015     0.00247       0.018
  12224701             JUNCTION      0.00     0.03     0  01:29           0     0.00163       1.358
  12224702             JUNCTION      0.00     0.03     0  01:28           0     0.00169       3.273
  12224801             JUNCTION      0.14     0.15     0  05:30      0.0174      0.0226       0.887
  12224901             JUNCTION      0.00     0.51     0  05:33           0      0.0703       0.079
  12224902             JUNCTION      0.00     0.14     0  05:33           0      0.0224       0.034
  12224903             JUNCTION      0.00     0.50     0  05:33           0      0.0658       0.042
  12225701             JUNCTION      0.08     0.19     0  05:30     0.00647      0.0209       0.064
  12225702             JUNCTION      0.12     0.12     0  05:30      0.0134       0.014       0.044
  12226802             JUNCTION      0.13     0.13     0  01:25     0.00679     0.00732      -0.220
  12226803             JUNCTION      0.00     0.19     0  05:31           0      0.0209       0.248
  12226901             JUNCTION      0.12     0.34     0  05:30     0.00841      0.0379       0.099
  12230101             JUNCTION      0.00     1.13     0  06:14           0       0.221       1.191
  12230103             JUNCTION      0.00     0.00     0  00:00           0           0       0.000 gal
  12230104             JUNCTION      0.00     3.63     0  05:59           0       0.758       0.327
  12230201             JUNCTION      0.00     0.56     0  05:50           0      0.0105       3.003
  12230202             JUNCTION      0.00     1.07     0  05:49           0      0.0887       4.139
  12230309             JUNCTION      0.00     0.16     0  05:52           0     0.00173       2.318
  12232201             JUNCTION      0.00     2.96     0  02:19           0       0.707       0.216
  12232202             JUNCTION      0.00     2.97     0  02:18           0       0.708       0.039
  12232203             JUNCTION      0.00     2.82     0  05:48           0        0.65       0.046
  12232204             JUNCTION      0.00     2.98     0  02:17           0       0.709       0.140
  12232301             JUNCTION      0.00     2.82     0  05:48           0       0.651       0.113
  12232302             JUNCTION      0.00     2.83     0  05:47           0       0.652       0.148
  12232304             JUNCTION      0.00     2.85     0  05:45           0       0.652       0.084
  12232402             JUNCTION      0.00     2.85     0  05:44           0       0.653       0.082
  12232501             JUNCTION      0.00     2.85     0  05:44           0       0.654       0.143
  12232502             JUNCTION      0.00     2.86     0  05:42           0       0.655       0.150
  12232504             JUNCTION      0.00     2.86     0  05:43           0       0.654       0.077
  12232602             JUNCTION      0.00     2.79     0  05:42           0       0.641       0.087
  12232703             JUNCTION      0.00     2.82     0  05:40           0       0.642       0.168
  12232706             JUNCTION      0.00     2.81     0  05:38           0        0.64       0.024
  12232707             JUNCTION      0.00     2.82     0  05:38           0        0.64       0.048
  12232708             JUNCTION      0.00     1.31     0  01:55           0       0.176       0.001
  12232709             JUNCTION      0.03     1.86     0  05:40       0.007       0.466       0.342
  12232715             JUNCTION      0.00     2.81     0  05:40           0       0.639       0.026
  12232716             JUNCTION      0.00     2.81     0  05:39           0        0.64       0.096
  12232717             JUNCTION      0.00     0.00     0  00:00           0           0       0.000 gal
  12232801             JUNCTION      0.00     1.15     0  05:53           0       0.281       0.077
  12232802             JUNCTION      0.00     1.15     0  05:51           0       0.282       0.125
  12232805             JUNCTION      0.00     0.90     0  01:59           0       0.172       0.029
  12232902             JUNCTION      0.00     0.90     0  01:58           0       0.172       0.069
  12232903             JUNCTION      0.00     1.16     0  05:49           0       0.283       0.087
  12232905             JUNCTION      0.00     0.90     0  01:59           0       0.172       0.016
  12232906             JUNCTION      0.12     0.32     0  05:34      0.0228      0.0728       0.045
  12232910             JUNCTION      0.00     0.67     0  01:59           0      0.0993       0.010
  12232913             JUNCTION      0.00     1.16     0  05:50           0       0.283       0.511
  12233001             JUNCTION      0.03     0.03     0  01:25     0.00145     0.00198      -0.116
  12233002             JUNCTION      0.00     0.03     0  01:26           0     0.00198       0.186
  12233003             JUNCTION      0.00     0.03     0  01:25           0     0.00199       0.107
  12233005             JUNCTION      0.00     3.03     0  05:56           0       0.707       0.355
  12233006             JUNCTION      0.00     2.95     0  05:52           0       0.708       0.458
  12233010             JUNCTION      0.00     3.06     0  05:56           0       0.705       0.366
  12233301             JUNCTION      0.00     0.08     0  01:50           0      0.0082       0.113
  12233302             JUNCTION      0.08     0.08     0  01:50     0.00768     0.00821       0.031
  12233303             JUNCTION      0.00     0.57     0  01:50           0      0.0591       0.021
  12233306             JUNCTION      0.10     0.10     0  01:50     0.00937      0.0111       0.042
  12233401             JUNCTION      0.10     0.16     0  01:50     0.00653      0.0151      -0.074
  12233402             JUNCTION      0.00     0.08     0  01:52           0     0.00819       0.098
  12233601             JUNCTION      0.05     0.05     0  01:25     0.00211     0.00254      -1.131
  12233602             JUNCTION      0.12     0.34     0  01:50      0.0082      0.0299      -0.031
  12233603             JUNCTION      0.00     0.23     0  01:50           0      0.0204       0.137
  12233701             JUNCTION      0.00     1.31     0  01:54           0       0.176       0.035
  12233702             JUNCTION      0.00     1.09     0  01:54           0       0.146       0.136
  12233703             JUNCTION      0.07     0.95     0  01:54     0.00417       0.117       0.010
  12233901             JUNCTION      0.00     0.67     0  01:58           0      0.0993       0.014
  12233902             JUNCTION      0.04     0.67     0  01:58     0.00725      0.0994       0.019
  12233903             JUNCTION      0.00     0.65     0  01:58           0       0.087       0.019
  12233907             JUNCTION      0.00     0.65     0  01:57           0       0.087       0.044
  12234006             JUNCTION      0.05     0.05     0  01:25     0.00247      0.0031      -0.147
  12234010             JUNCTION      0.00     0.01     0  22:41           0     0.00455       0.016
  12234011             JUNCTION      0.01     0.01     0  22:40     0.00216     0.00455       0.033
  12234013             JUNCTION      0.00     0.05     0  01:25           0     0.00311      -0.024
  12234022             JUNCTION      0.00     0.37     0  05:31    0.000868      0.0435       0.129
  12234301             JUNCTION      0.15     0.43     0  01:50     0.00825      0.0447       0.016
  12234302             JUNCTION      0.05     0.47     0  01:50     0.00301      0.0481       0.013
  12234503             JUNCTION      0.15     0.24     0  01:50      0.0107      0.0204       0.046
  12234701             JUNCTION      0.00     0.92     0  01:54           0       0.113       0.075
  12234702             JUNCTION      0.00     0.78     0  01:54           0      0.0907       0.027
  12234913             JUNCTION      0.18     0.18     0  01:50      0.0201       0.029      -0.081
  12235001             JUNCTION      0.07     0.37     0  05:31     0.00328      0.0418       0.014
  12235401             JUNCTION      0.08     0.32     0  01:50     0.00449       0.035       0.030
  12235402             JUNCTION      0.05     0.27     0  01:50     0.00224      0.0295       0.032
  12235601             JUNCTION      0.13     0.79     0  01:53     0.00919      0.0908       0.051
  12235702             JUNCTION      0.19     0.19     0  01:50      0.0168       0.022      -0.084
  12235901             JUNCTION      0.00     0.54     0  01:57           0      0.0597       0.041
  12236401             JUNCTION      0.14     0.20     0  01:50      0.0101      0.0236       0.004
  12236501             JUNCTION      0.10     0.10     0  01:25     0.00683     0.00813      -0.039
  12236502             JUNCTION      0.04     0.24     0  01:50     0.00289      0.0269       0.058
  12236901             JUNCTION      0.08     0.54     0  01:56     0.00543      0.0597       0.014
  12236902             JUNCTION      0.00     0.50     0  01:55           0      0.0537       0.088
  12237401             JUNCTION      0.00     0.08     0  01:52           0      0.0117       0.193
  12237502             JUNCTION      0.05     0.72     0  01:52      0.0024      0.0791       0.117
  12238301             JUNCTION      0.00     0.09     0  01:50           0      0.0117       0.236
  12238602             JUNCTION      0.07     0.59     0  01:52     0.00408      0.0654       0.069
  12238801             JUNCTION      0.09     0.50     0  01:54     0.00348      0.0537       0.014
  12238802             JUNCTION      0.00     0.48     0  01:54           0      0.0501       0.078
  12239301             JUNCTION      0.04     0.04     0  01:25     0.00322     0.00506      -0.115
  12239501             JUNCTION      0.07     0.07     0  01:50     0.00533     0.00664      -0.050
  12239502             JUNCTION      0.09     0.09     0  01:50      0.0064     0.00727      -0.027
  12239503             JUNCTION      0.04     0.13     0  01:50     0.00284       0.011      -0.103
  12240301             JUNCTION      0.01     0.11     0  05:40     0.00132     0.00379       0.569
  12241001             JUNCTION      0.00     1.16     0  05:48           0       0.284       0.143
  12241002             JUNCTION      0.05     1.16     0  05:46     0.00634       0.284       0.108
  12241003             JUNCTION      0.00     1.16     0  05:48           0       0.284       0.075
  12241104             JUNCTION      0.00     1.14     0  05:45           0       0.276       0.059
  12241201             JUNCTION      0.00     1.15     0  05:43           0       0.276       0.074
  12241202             JUNCTION      0.09     1.20     0  01:57      0.0108       0.277       0.079
  12241203             JUNCTION      0.00     0.69     0  01:58           0       0.121       0.030
  12241206             JUNCTION      0.00     0.75     0  01:57           0       0.144       0.037
  12241208             JUNCTION      0.00     1.14     0  05:46           0       0.276       0.061
  12241301             JUNCTION      0.00     1.52     0  01:56           0       0.262       0.011
  12241302             JUNCTION      0.00     1.52     0  01:57           0       0.266       0.050
  12241303             JUNCTION      0.00     1.55     0  02:00           0       0.264       0.033
  12241304             JUNCTION      0.00     1.52     0  01:56           0       0.262       0.002
  12241401             JUNCTION      0.00     0.16     0  01:51           0      0.0192       0.566
  12241402             JUNCTION      0.11     0.16     0  01:50      0.0105      0.0192       0.054
  12241404             JUNCTION      0.00     0.06     0  01:50           0     0.00598       0.127
  12241501             JUNCTION      0.06     0.06     0  01:50     0.00468     0.00598      -0.007
  12242001             JUNCTION      0.00     0.22     0  01:54           0       0.039       0.023
  12242002             JUNCTION      0.00     0.22     0  01:54           0       0.039       0.080
  12242003             JUNCTION      0.06     0.23     0  01:52     0.00755      0.0395       1.185
  12242201             JUNCTION      0.06     0.19     0  01:50      0.0106      0.0295       0.097
  12242204             JUNCTION      0.00     0.13     0  01:50           0      0.0134       0.012
  12242301             JUNCTION      0.00     1.41     0  05:36           0       0.243       0.026
  12242302             JUNCTION      0.00     1.41     0  05:35           0       0.243       0.040
  12242304             JUNCTION      0.10     1.41     0  05:35      0.0116       0.243       0.014
  12242306             JUNCTION      0.00     1.41     0  05:35           0       0.243       0.026
  12243001             JUNCTION      0.07     0.07     0  01:50     0.00571     0.00721      -0.012
  12243103             JUNCTION      0.00     0.07     0  01:50           0     0.00721       0.198
  12243201             JUNCTION      0.07     0.13     0  01:50     0.00513      0.0134      -0.002
  12243301             JUNCTION      0.00     1.35     0  05:34           0       0.227       0.034
  12243303             JUNCTION      0.00     0.28     0  01:52           0      0.0328       0.011
  12243305             JUNCTION      0.13     1.13     0  05:34      0.0124       0.194       0.061
  12243401             JUNCTION      0.13     0.28     0  01:51       0.012      0.0328       0.040
  12243501             JUNCTION      0.00     0.17     0  01:51           0      0.0178       0.112
  12244001             JUNCTION      0.08     0.59     0  01:57     0.00625      0.0672       0.037
  12244005             JUNCTION      0.09     0.09     0  01:50      0.0133      0.0199       0.008
  12244202             JUNCTION      0.08     0.22     0  01:50     0.00719      0.0268       0.024
  12244301             JUNCTION      0.00     0.11     0  01:51           0       0.015       0.041
  12244302             JUNCTION      0.00     0.06     0  01:52           0     0.00782       0.095
  12244303             JUNCTION      0.00     0.27     0  01:50           0      0.0346       0.030
  12244402             JUNCTION      0.00     0.87     0  05:35           0       0.143       0.055
  12244403             JUNCTION      0.07     0.83     0  05:35      0.0054       0.136       0.027
  12244502             JUNCTION      0.08     0.35     0  05:32     0.00709      0.0669       0.080
  12244601             JUNCTION      0.07     0.17     0  01:50     0.00508      0.0178       0.088
  12245201             JUNCTION      0.15     0.15     0  01:50       0.013      0.0168       0.012
  12245301             JUNCTION      0.00     0.12     0  01:50           0       0.015       0.130
  12245402             JUNCTION      0.00     0.45     0  05:34           0      0.0627       0.068
  12245403             JUNCTION      0.00     0.80     0  05:34           0        0.13       0.061
  12245405             JUNCTION      0.00     0.24     0  01:51           0      0.0292       0.059
  12245602             JUNCTION      0.14     0.30     0  05:33      0.0127      0.0576       0.081
  12245701             JUNCTION      0.11     0.11     0  01:50     0.00998      0.0121       0.080
  12246201             JUNCTION      0.12     0.12     0  05:30      0.0122      0.0122       0.069
  12246202             JUNCTION      0.12     0.12     0  01:50      0.0114       0.015      -0.006
  12246303             JUNCTION      0.06     0.26     0  05:33     0.00648      0.0336       0.212
  12246401             JUNCTION      0.00     0.03     0  01:50           0     0.00452       0.064
  12246404             JUNCTION      0.07     0.21     0  01:51     0.00584      0.0247       0.025
  12246501             JUNCTION      0.04     0.04     0  01:50     0.00307     0.00403      -0.049
  12246503             JUNCTION      0.03     0.03     0  01:50     0.00346     0.00452       0.014
  12246601             JUNCTION      0.00     0.20     0  05:35           0      0.0377       0.192
  12246602             JUNCTION      0.03     0.03     0  01:50     0.00255     0.00308      -0.114
  12247201             JUNCTION      0.00     0.21     0  05:31           0      0.0257       0.203
  12247303             JUNCTION      0.10     0.12     0  01:50     0.00875      0.0135      -0.013
  12247402             JUNCTION      0.06     0.15     0  01:51     0.00465      0.0171       0.024
  12247403             JUNCTION      0.00     0.10     0  01:52           0      0.0113       0.098
  12247405             JUNCTION      0.00     0.06     0  01:53           0     0.00562       0.108
  12247501             JUNCTION      0.05     0.05     0  01:50     0.00441     0.00571      -0.047
  12247704             JUNCTION      0.05     0.19     0  05:35     0.00545      0.0347       0.099
  12248401             JUNCTION      0.00     0.09     0  01:52           0     0.00878      -0.004
  12248402             JUNCTION      0.00     0.03     0  01:53           0     0.00316       0.340
  12248502             JUNCTION      0.03     0.03     0  01:50     0.00262     0.00325      -0.022
  12248504             JUNCTION      0.00     0.10     0  01:51           0     0.00879       0.153
  12248505             JUNCTION      0.06     0.07     0  01:50     0.00344     0.00554      -0.045
  12248701             JUNCTION      0.00     0.15     0  05:35           0      0.0278       0.099
  12248702             JUNCTION      0.02     0.02     0  05:30     0.00277     0.00364      -0.015
  12248703             JUNCTION      0.06     0.10     0  01:51     0.00644      0.0146       0.123
  12248704             JUNCTION      0.00     0.13     0  05:32           0      0.0242       0.266
  12248803             JUNCTION      0.00     0.05     0  05:31           0     0.00959       0.224
  12249603             JUNCTION      0.00     0.02     0  01:51           0     0.00201       0.416
  12249605             JUNCTION      0.00     0.01     0  01:51           0     0.00077       0.511
  12249703             JUNCTION      0.00     0.05     0  01:51           0     0.00636       0.068
  12249704             JUNCTION      0.05     0.05     0  01:25       0.004      0.0056      -0.016
  12249801             JUNCTION      0.00     0.05     0  01:25           0      0.0056       0.059
  12249803             JUNCTION      0.05     0.05     0  05:30     0.00694     0.00959       0.042
  13230603             JUNCTION      0.05     0.47     0  01:51     0.00317      0.0518       0.047
  13230605             JUNCTION      0.00     0.19     0  01:51           0      0.0205       0.099
  13230701             JUNCTION      0.10     0.55     0  01:51     0.00729      0.0605       0.037
  13230803             JUNCTION      0.09     0.49     0  01:53     0.00557      0.0502       0.091
  13231601             JUNCTION      0.11     0.19     0  01:50     0.00829      0.0205       0.031
  13231602             JUNCTION      0.11     0.26     0  01:50     0.00873      0.0275       0.057
  13231802             JUNCTION      0.00     0.11     0  01:50           0      0.0102      -0.019
  13231803             JUNCTION      0.00     0.44     0  01:51           0      0.0443       0.128
  13232505             JUNCTION      0.00     0.10     0  01:50           0      0.0103       0.272
  13232602             JUNCTION      0.00     0.16     0  01:50           0      0.0168       0.080
  13232701             JUNCTION      0.11     0.11     0  01:50     0.00861      0.0102      -0.006
  13232702             JUNCTION      0.00     0.11     0  01:50           0      0.0102       0.038
  13232804             JUNCTION      0.00     0.11     0  01:50           0      0.0102       0.044
  13233503             JUNCTION      0.10     0.10     0  01:50     0.00828      0.0103      -0.056
  13233601             JUNCTION      0.09     0.16     0  01:50     0.00729      0.0168       0.046
  13233801             JUNCTION      0.00     0.34     0  01:51           0      0.0341       0.036
  13233804             JUNCTION      0.11     0.34     0  01:50     0.00855      0.0342       0.022
  13234601             JUNCTION      0.08     0.08     0  01:50     0.00601     0.00741       0.025
  13234803             JUNCTION      0.13     0.24     0  01:50      0.0103      0.0235       0.030
  13235703             JUNCTION      0.00     0.12     0  01:51           0      0.0108       0.200
  13236603             JUNCTION      0.00     0.13     0  01:50           0      0.0109       0.184
  13237501             JUNCTION      0.10     0.10     0  01:25     0.00521     0.00637      -0.165
  13237601             JUNCTION      0.06     0.06     0  01:50     0.00405     0.00449      -0.031
  13240601             JUNCTION      0.00     0.03     0  01:50           0     0.00278       0.036
  13240602             JUNCTION      0.03     0.03     0  01:50     0.00235     0.00278       0.033
  DUMWBST1             JUNCTION      0.00     0.00     0  00:00           0           0       0.000 gal
  12223912             OUTFALL       0.00     0.00     0  00:00           0           0       0.000 gal
  12230003             OUTFALL       0.00     3.59     0  05:59           0       0.755       0.000
  12232718             OUTFALL       0.00     0.00     0  00:00           0           0       0.000 gal
  12232912             OUTFALL       0.00     0.00     0  00:00           0           0       0.000 gal
  12232914             OUTFALL       0.00     0.00     0  00:00           0           0       0.000 gal
  12232915             OUTFALL       0.00     0.00     0  00:00           0           0       0.000 gal
  12240302             OUTFALL       0.00     0.10     0  05:44           0    0.000309       0.000
  O1                   OUTFALL       0.00     0.00     0  00:00           0           0       0.000 gal
  12223902             STORAGE       0.00     6.64     0  05:46           0       0.769      -0.205
  12230102             STORAGE       0.00     4.86     0  05:46           0       0.905       0.068
  
  
  **********************
  Node Surcharge Summary
  **********************
  
  Surcharging occurs when water rises above the top of the highest conduit.
  ---------------------------------------------------------------------
                                               Max. Height   Min. Depth
                                   Hours       Above Crown    Below Rim
  Node                 Type      Surcharged           Feet         Feet
  ---------------------------------------------------------------------
  12223913             JUNCTION       23.92          6.295        8.436
  12224506             JUNCTION       23.69          3.130        7.247
  12241201             JUNCTION        2.65          0.645        4.404
  12241202             JUNCTION        2.36          0.587        4.039
  12241203             JUNCTION        0.31          0.209        3.406
  12241206             JUNCTION        0.32          0.218        3.109
  12241208             JUNCTION        2.75          0.662        3.328
  12241303             JUNCTION        0.23          0.137        1.793
  
  
  *********************
  Node Flooding Summary
  *********************
  
  No nodes were flooded.
  
  
  **********************
  Storage Volume Summary
  **********************
  
  ------------------------------------------------------------------------------------------------
                         Average    Avg   Evap  Exfil     Maximum    Max    Time of Max    Maximum
                          Volume   Pcnt   Pcnt   Pcnt      Volume   Pcnt     Occurrence    Outflow
  Storage Unit          1000 ftł   Full   Loss   Loss    1000 ftł   Full    days hr:min        CFS
  ------------------------------------------------------------------------------------------------
  12223902                 0.245   34.9    0.0    0.0       0.385   54.8       0  05:46       3.68
  12230102                 0.185    7.4    0.0    0.0       0.344   13.8       0  05:59       4.10
  
  
  ***********************
  Outfall Loading Summary
  ***********************
  
  -----------------------------------------------------------
                         Flow       Avg       Max       Total
                         Freq      Flow      Flow      Volume
  Outfall Node           Pcnt       CFS       CFS    10^6 gal
  -----------------------------------------------------------
  12223912               0.00      0.00      0.00       0.000
  12230003             100.00      1.18      3.59       0.755
  12232718               0.00      0.00      0.00       0.000
  12232912               0.00      0.00      0.00       0.000
  12232914               0.00      0.00      0.00       0.000
  12232915               0.00      0.00      0.00       0.000
  12240302               1.19      0.05      0.10       0.000
  O1                     0.00      0.00      0.00       0.000
  -----------------------------------------------------------
  System                12.65      1.23      3.59       0.756
  
  
  ********************
  Link Flow Summary
  ********************
  
  -----------------------------------------------------------------------------
                                 Maximum  Time of Max   Maximum    Max/    Max/
                                  |Flow|   Occurrence   |Veloc|    Full    Full
  Link                 Type          CFS  days hr:min    ft/sec    Flow   Depth
  -----------------------------------------------------------------------------
  11239101.1           CONDUIT      0.00     0  00:00      0.00    0.00    0.00
  12223602.1           CONDUIT      0.02     0  01:25      0.16    0.01    0.53
  12223801.1           CONDUIT      0.51     0  05:36      4.34    0.03    0.13
  12223802.1           CONDUIT      0.51     0  05:35      5.57    0.02    0.11
  12223803.1           CONDUIT      0.51     0  05:35      5.78    0.02    0.10
  12223906.1           CONDUIT      0.51     0  05:36      3.45    0.03    0.14
  12223907.1           CONDUIT      0.51     0  05:37      2.88    0.05    0.16
  12223908.1           CONDUIT      0.51     0  05:37      1.47    0.05    0.38
  12223910.1           CONDUIT      3.41     0  02:32      4.55    0.32    0.34
  12223911.1           CONDUIT      6.64     0  05:46     11.22    0.06    0.28
  12223913.1           CONDUIT      0.03     0  00:49      0.30    0.05    1.00
  12224601.1           CONDUIT      0.03     0  01:28      5.00    0.03    0.11
  12224602.1           CONDUIT      0.01     0  01:26      0.14    0.01    0.53
  12224701.1           CONDUIT      0.02     0  01:30      0.31    0.00    0.17
  12224702.1           CONDUIT      0.03     0  01:29      3.63    0.01    0.06
  12224801.1           CONDUIT      0.14     0  05:33      1.70    0.06    0.12
  12224901.1           CONDUIT      0.51     0  05:34      4.64    0.03    0.11
  12224902.1           CONDUIT      0.14     0  05:33      3.29    0.01    0.11
  12224903.1           CONDUIT      0.50     0  05:33      6.04    0.02    0.12
  12225701.1           CONDUIT      0.19     0  05:31      2.90    0.08    0.18
  12225702.1           CONDUIT      0.12     0  05:30      2.02    0.07    0.20
  12226802.1           CONDUIT      0.13     0  01:25      3.93    0.01    0.10
  12226803.1           CONDUIT      0.19     0  05:32      3.44    0.05    0.16
  12226901.1           CONDUIT      0.34     0  05:31      5.48    0.04    0.14
  12230101.1           CONDUIT      1.43     0  06:00      1.12    0.02    0.15
  12230102.1           CONDUIT      3.63     0  05:59      2.41    0.04    0.13
  12230103.1           CONDUIT      0.00     0  00:00      0.00    0.00    0.16
  12230104.1           CONDUIT      3.59     0  05:59      2.88    0.04    0.11
  12230201.1           CONDUIT      0.52     0  05:50      0.74    0.01    0.07
  12230202.1           CONDUIT      1.13     0  06:14      0.69    0.01    0.16
  12230309.1           CONDUIT      0.16     0  05:52      0.36    0.00    0.04
  12232201.1           CONDUIT      2.94     0  05:52      1.93    0.34    0.48
  12232202.1           CONDUIT      2.96     0  02:19      2.33    0.42    0.44
  12232203.1           CONDUIT      2.82     0  05:49      2.61    0.47    0.33
  12232204.1           CONDUIT      2.97     0  02:18      2.91    0.19    0.32
  12232301.1           CONDUIT      2.82     0  05:48      2.02    0.55    0.46
  12232302.1           CONDUIT      2.82     0  05:48      1.64    0.49    0.51
  12232304.1           CONDUIT      2.83     0  05:47      1.74    0.20    0.49
  12232402.1           CONDUIT      2.85     0  05:45      2.29    0.44    0.43
  12232501.1           CONDUIT      2.85     0  05:44      2.63    0.38    0.37
  12232502.1           CONDUIT      2.86     0  05:43      2.89    0.19    0.34
  12232504.1           CONDUIT      2.85     0  05:44      1.85    0.26    0.47
  12232602.1           CONDUIT      2.79     0  05:43      2.73    0.26    0.34
  12232703.1           CONDUIT      2.79     0  05:42      2.29    0.39    0.42
  12232706.1           CONDUIT      2.81     0  05:39      2.67    0.11    0.38
  12232707.1           CONDUIT      2.81     0  05:38      3.33    0.30    0.32
  12232708.1           CONDUIT      1.31     0  01:55      4.08    0.10    0.48
  12232709.1           CONDUIT      1.85     0  05:41      2.67    0.26    0.28
  12232715.1           CONDUIT      2.81     0  05:40      3.09    0.10    0.34
  12232716.1           CONDUIT      2.81     0  05:40      2.85    0.14    0.36
  12232717.1           CONDUIT      0.00     0  00:00      0.00    0.00    0.00
  12232801.1           CONDUIT      1.16     0  05:53      1.27    0.23    0.54
  12232802.1           CONDUIT      1.15     0  05:53      2.41    0.26    0.29
  12232805.1           CONDUIT      0.90     0  02:00      1.84    0.11    0.61
  12232902.1           CONDUIT      0.90     0  01:59      2.93    0.50    0.42
  12232903.1           CONDUIT      1.16     0  05:50      1.21    0.10    0.55
  12232903.2           CONDUIT      0.00     0  00:00      0.00    0.00    0.16
  12232905.1           CONDUIT      0.90     0  01:59      5.65    0.17    0.26
  12232906.1           CONDUIT      0.32     0  05:35      1.27    0.11    0.37
  12232910.1           CONDUIT      0.67     0  01:59      2.74    0.07    0.36
  12232913.1           CONDUIT      1.15     0  05:51      1.09    0.15    0.60
  12232913.2           CONDUIT      0.00     0  00:00      0.00    0.00    0.50
  12233001.1           CONDUIT      0.03     0  01:25      3.06    0.00    0.04
  12233002.1           CONDUIT      0.02     0  01:28      0.07    0.00    0.51
  12233003.1           CONDUIT      0.03     0  01:26      3.47    0.00    0.03
  12233005.1           CONDUIT      3.06     0  05:56      1.07    0.22    0.80
  12233006.1           CONDUIT      3.03     0  05:56      1.30    0.20    0.66
  12233010.1           CONDUIT      3.08     0  05:56      1.46    0.08    0.62
  12233301.1           CONDUIT      0.08     0  01:50      1.24    0.27    0.37
  12233301.2           CONDUIT      0.08     0  01:52      1.52    0.26    0.31
  12233302.1           CONDUIT      0.00     0  00:00      0.00    0.00    0.00
  12233303.1           CONDUIT      0.56     0  01:51      2.21    0.07    0.49
  12233306.1           CONDUIT      0.10     0  01:50      1.40    0.02    0.11
  12233401.1           CONDUIT      0.16     0  01:52      0.86    0.02    0.37
  12233402.2           CONDUIT      0.08     0  01:53      2.60    0.11    0.21
  12233601.1           CONDUIT      0.04     0  01:26      0.73    0.00    0.19
  12233602.1           CONDUIT      0.34     0  01:51      4.58    0.08    0.30
  12233603.1           CONDUIT      0.23     0  01:51      4.52    0.06    0.18
  12233701.1           CONDUIT      1.31     0  01:55      9.74    0.30    0.35
  12233702.1           CONDUIT      1.05     0  01:56      4.37    0.68    0.55
  12233703.1           CONDUIT      0.95     0  01:54      4.43    0.22    0.50
  12233901.1           CONDUIT      0.67     0  01:59      8.36    0.13    0.24
  12233902.1           CONDUIT      0.67     0  01:58      5.32    0.12    0.22
  12233903.1           CONDUIT      0.65     0  01:58      5.38    0.21    0.33
  12233907.1           CONDUIT      0.65     0  01:58      6.13    0.11    0.25
  12234006.1           CONDUIT      0.05     0  01:25      4.76    0.00    0.04
  12234010.1           CONDUIT      0.01     0  22:43      0.70    0.00    0.14
  12234011.1           CONDUIT      0.01     0  22:41      1.39    0.02    0.08
  12234013.1           CONDUIT      0.04     0  01:26      0.34    0.00    0.52
  12234013.2           CONDUIT      0.01     0  01:26      0.96    0.01    0.08
  12234022.2           CONDUIT      0.36     0  05:33      3.73    0.10    0.19
  12234301.1           CONDUIT      0.43     0  01:50      6.46    0.04    0.14
  12234302.1           CONDUIT      0.47     0  01:51      6.36    0.05    0.16
  12234503.1           CONDUIT      0.23     0  01:50      5.20    0.06    0.16
  12234701.1           CONDUIT      0.91     0  01:55      7.72    0.20    0.31
  12234701.2           CONDUIT      0.78     0  01:54      4.64    0.01    0.08
  12234702.1           CONDUIT      0.00     0  00:00      0.00    0.00    0.00
  12234913.1           CONDUIT      0.17     0  01:50      2.80    0.04    0.40
  12235001.1           CONDUIT      0.37     0  05:31      4.39    0.04    0.19
  12235401.1           CONDUIT      0.32     0  01:51      5.78    0.03    0.12
  12235402.1           CONDUIT      0.27     0  01:51      5.70    0.02    0.11
  12235601.1           CONDUIT      0.78     0  01:54      8.53    0.08    0.18
  12235702.1           CONDUIT      0.18     0  01:50      5.20    0.04    0.21
  12235901.1           CONDUIT      0.54     0  01:57      6.17    0.06    0.17
  12236401.1           CONDUIT      0.20     0  01:50      3.92    0.06    0.18
  12236501.1           CONDUIT      0.09     0  01:50      3.01    0.02    0.13
  12236502.1           CONDUIT      0.24     0  01:51      5.10    0.07    0.17
  12236901.1           CONDUIT      0.54     0  01:57      5.76    0.08    0.18
  12236902.1           CONDUIT      0.50     0  01:57      4.77    0.08    0.20
  12237401.1           CONDUIT      0.08     0  01:53      2.44    0.02    0.13
  12237502.1           CONDUIT      0.71     0  01:54      6.84    0.07    0.19
  12238301.1           CONDUIT      0.08     0  01:52      2.70    0.04    0.12
  12238602.1           CONDUIT      0.59     0  01:53      5.88    0.08    0.19
  12238801.1           CONDUIT      0.50     0  01:55      5.36    0.06    0.18
  12238802.1           CONDUIT      0.48     0  01:55      5.21    0.07    0.18
  12239301.1           CONDUIT      0.04     0  01:25      3.64    0.03    0.15
  12239501.1           CONDUIT      0.07     0  01:50      2.71    0.06    0.19
  12239502.1           CONDUIT      0.09     0  01:50      3.24    0.01    0.08
  12239503.1           CONDUIT      0.12     0  01:50      3.54    0.02    0.13
  12240301.1           CONDUIT      0.11     0  05:40      0.30    0.06    0.73
  12241001.1           CONDUIT      1.16     0  05:49      1.98    0.40    0.37
  12241002.1           CONDUIT      1.16     0  05:48      2.24    0.38    0.41
  12241003.1           CONDUIT      1.16     0  05:48      2.24    0.20    0.40
  12241104.1           CONDUIT      1.14     0  05:45      2.33    0.25    0.39
  12241201.1           CONDUIT      1.14     0  05:46      1.07    0.82    1.00
  12241202.1           CONDUIT      1.15     0  05:43      1.40    0.56    1.00
  12241203.1           CONDUIT      0.59     0  05:42      1.22    0.16    1.00
  12241206.1           CONDUIT      0.64     0  01:56      1.33    0.20    1.00
  12241301.1           CONDUIT      1.52     0  01:57      5.06    0.11    0.50
  12241302.1           CONDUIT      1.55     0  02:00      3.54    0.27    0.90
  12241302.2           CONDUIT      0.10     0  05:44      0.19    0.02    0.45
  12241303.1           CONDUIT      0.69     0  01:58      1.88    0.34    1.00
  12241303.2           CONDUIT      0.75     0  01:57      1.97    0.28    1.00
  12241304.1           CONDUIT      1.52     0  01:56      4.67    0.26    0.32
  12241401.1           CONDUIT      0.16     0  01:51      1.71    0.05    0.24
  12241402.1           CONDUIT      0.16     0  01:51      1.34    0.04    0.21
  12241404.1           CONDUIT      0.05     0  01:51      1.22    0.01    0.11
  12241501.1           CONDUIT      0.06     0  01:50      2.03    0.02    0.10
  12242001.1           CONDUIT      0.22     0  01:55      1.91    0.11    0.22
  12242002.1           CONDUIT      0.22     0  01:54      2.19    0.08    0.15
  12242003.1           CONDUIT      0.22     0  01:54      2.03    0.15    0.19
  12242201.1           CONDUIT      0.19     0  01:52      0.86    0.05    0.33
  12242204.1           CONDUIT      0.13     0  01:51      2.96    0.02    0.13
  12242301.1           CONDUIT      1.41     0  05:36      2.35    0.80    0.50
  12242302.1           CONDUIT      1.41     0  05:36      3.31    0.25    0.48
  12242304.1           CONDUIT      1.41     0  05:35      6.48    0.08    0.24
  12242306.1           CONDUIT      1.41     0  05:35      4.88    0.27    0.40
  12243001.1           CONDUIT      0.07     0  01:50      3.14    0.06    0.16
  12243103.1           CONDUIT      0.07     0  01:51      2.82    0.04    0.17
  12243201.1           CONDUIT      0.13     0  01:50      4.55    0.10    0.21
  12243301.1           CONDUIT      1.35     0  05:35      7.36    0.11    0.21
  12243303.1           CONDUIT      0.28     0  01:53      2.46    0.04    0.21
  12243305.1           CONDUIT      1.13     0  05:35      5.16    0.13    0.24
  12243401.1           CONDUIT      0.28     0  01:52      4.38    0.09    0.20
  12243501.1           CONDUIT      0.16     0  01:53      2.81    0.06    0.19
  12244001.1           CONDUIT      0.59     0  01:58      6.13    0.07    0.18
  12244005.1           CONDUIT      0.09     0  01:50      2.12    0.02    0.17
  12244202.1           CONDUIT      0.22     0  01:50      3.58    0.07    0.21
  12244301.1           CONDUIT      0.06     0  01:52      2.50    0.07    0.18
  12244301.2           CONDUIT      0.05     0  01:52      1.06    0.03    0.21
  12244302.1           CONDUIT      0.06     0  01:53      1.42    0.07    0.27
  12244303.1           CONDUIT      0.26     0  01:51      2.66    0.14    0.32
  12244402.1           CONDUIT      0.87     0  05:35      4.45    0.08    0.22
  12244403.1           CONDUIT      0.83     0  05:35      5.11    0.17    0.27
  12244502.1           CONDUIT      0.35     0  05:34      2.73    0.07    0.23
  12244601.1           CONDUIT      0.17     0  01:51      3.69    0.21    0.29
  12245201.1           CONDUIT      0.14     0  01:50      3.32    0.04    0.16
  12245301.1           CONDUIT      0.11     0  01:51      3.22    0.05    0.14
  12245402.1           CONDUIT      0.45     0  05:35      2.94    0.12    0.25
  12245403.1           CONDUIT      0.79     0  05:35      4.54    0.16    0.28
  12245405.1           CONDUIT      0.24     0  01:52      2.54    0.05    0.19
  12245602.1           CONDUIT      0.30     0  05:35      3.42    0.06    0.17
  12245701.1           CONDUIT      0.10     0  01:51      2.17    0.15    0.29
  12246201.1           CONDUIT      0.12     0  05:30      2.04    0.13    0.28
  12246202.1           CONDUIT      0.12     0  01:50      3.10    0.04    0.14
  12246303.1           CONDUIT      0.26     0  05:35      2.06    0.09    0.22
  12246401.1           CONDUIT      0.03     0  05:30      1.05    0.02    0.16
  12246404.1           CONDUIT      0.21     0  01:51      3.01    0.05    0.15
  12246501.1           CONDUIT      0.04     0  01:50      1.05    0.02    0.15
  12246503.1           CONDUIT      0.03     0  01:50      1.85    0.01    0.08
  12246601.1           CONDUIT      0.20     0  05:37      2.28    0.07    0.17
  12246602.1           CONDUIT      0.03     0  01:50      1.25    0.01    0.12
  12247201.1           CONDUIT      0.21     0  05:34      2.03    0.07    0.19
  12247303.1           CONDUIT      0.12     0  01:52      2.72    0.05    0.19
  12247402.1           CONDUIT      0.15     0  01:52      2.46    0.03    0.13
[...]
  12232201.1              1.00   0.00  0.00  0.00  1.00  0.00  0.00  0.00  1.00  0.00
  12232202.1              1.00   0.00  0.00  0.00  1.00  0.00  0.00  0.00  0.00  0.00
  12232203.1              9.65   0.00  0.00  0.00  1.00  0.00  0.00  0.00  0.00  0.00
  12232204.1              6.41   0.00  0.00  0.00  0.29  0.00  0.00  0.71  0.00  0.00
  12232301.1              1.00   0.00  0.00  0.00  1.00  0.00  0.00  0.00  0.00  0.00
  12232302.1              1.00   0.00  0.00  0.00  1.00  0.00  0.00  0.00  0.00  0.00
  12232304.1              1.00   0.00  0.00  0.00  1.00  0.00  0.00  0.00  0.74  0.00
  12232402.1              1.00   0.00  0.00  0.00  1.00  0.00  0.00  0.00  0.00  0.00
  12232501.1              1.00   0.00  0.00  0.00  0.23  0.00  0.00  0.77  0.00  0.00
  12232502.1              1.00   0.00  0.00  0.00  1.00  0.00  0.00  0.00  1.00  0.00
  12232504.1              1.66   0.00  0.00  0.00  1.00  0.00  0.00  0.00  0.00  0.00
  12232602.1              1.00   0.00  0.00  0.00  1.00  0.00  0.00  0.00  0.76  0.00
  12232703.1              1.00   0.00  0.00  0.00  1.00  0.00  0.00  0.00  0.00  0.00
  12232706.1              4.44   0.00  0.00  0.00  1.00  0.00  0.00  0.00  0.93  0.00
  12232707.1              1.02   0.00  0.00  0.00  1.00  0.00  0.00  0.00  0.00  0.00
  12232708.1              5.59   0.00  0.00  0.00  0.95  0.05  0.00  0.00  1.00  0.00
  12232709.1              1.03   0.00  0.00  0.00  0.00  0.00  0.00  1.00  0.00  0.00
  12232715.1              5.71   0.00  0.00  0.00  1.00  0.00  0.00  0.00  1.00  0.00
  12232716.1              7.31   0.00  0.00  0.00  1.00  0.00  0.00  0.00  0.00  0.00
  12232717.1              2.50   1.00  0.00  0.00  0.00  0.00  0.00  0.00  0.00  0.00
  12232801.1              1.00   0.00  0.00  0.00  1.00  0.00  0.00  0.00  0.92  0.00
  12232802.1              1.00   0.00  0.00  0.00  0.00  0.00  0.00  1.00  0.00  0.00
  12232805.1              1.00   0.00  0.00  0.00  1.00  0.00  0.00  0.00  1.00  0.00
  12232902.1              1.67   0.00  0.00  0.00  1.00  0.00  0.00  0.00  0.00  0.00
  12232903.1              1.62   0.00  0.00  0.00  1.00  0.00  0.00  0.00  1.00  0.00
  12232903.2              7.92   0.00  1.00  0.00  0.00  0.00  0.00  0.00  0.00  0.00
  12232905.1              1.00   0.00  0.00  0.00  0.00  1.00  0.00  0.00  0.00  0.00
  12232906.1              1.00   0.00  0.00  0.00  1.00  0.00  0.00  0.00  1.00  0.00
  12232910.1              2.16   0.00  0.00  0.00  0.98  0.02  0.00  0.00  1.00  0.00
  12232913.1              1.70   0.00  0.00  0.00  1.00  0.00  0.00  0.00  0.00  0.00
  12232913.2              8.18   0.00  1.00  0.00  0.00  0.00  0.00  0.00  0.00  0.00
  12233001.1              2.75   0.00  0.00  0.00  0.00  1.00  0.00  0.00  0.31  0.00
  12233002.1              2.26   0.00  0.00  0.00  1.00  0.00  0.00  0.00  1.00  0.00
  12233003.1             21.12   0.00  0.00  0.00  0.00  1.00  0.00  0.00  0.29  0.00
  12233005.1              3.43   0.00  0.00  0.00  1.00  0.00  0.00  0.00  0.00  0.00
  12233006.1              1.34   0.00  0.00  0.00  1.00  0.00  0.00  0.00  0.00  0.00
  12233010.1              6.58   0.00  0.00  0.00  1.00  0.00  0.00  0.00  0.00  0.00
  12233301.1              1.00   0.00  0.00  0.00  1.00  0.00  0.00  0.00  0.97  0.00
  12233301.2              1.00   0.00  0.00  0.00  1.00  0.00  0.00  0.00  0.00  0.00
  12233302.1              1.00   1.00  0.00  0.00  0.00  0.00  0.00  0.00  0.00  0.00
  12233303.1              1.00   0.00  0.00  0.00  1.00  0.00  0.00  0.00  1.00  0.00
  12233306.1              1.00   0.00  0.00  0.00  1.00  0.00  0.00  0.00  1.00  0.00
  12233401.1              1.00   0.00  0.00  0.00  1.00  0.00  0.00  0.00  1.00  0.00
  12233402.2              1.00   0.00  0.00  0.00  0.02  0.98  0.00  0.00  0.05  0.00
  12233601.1              1.49   0.00  0.00  0.00  1.00  0.00  0.00  0.00  1.00  0.00
  12233602.1              1.00   0.00  0.00  0.00  0.77  0.23  0.00  0.00  1.00  0.00
  12233603.1              1.13   0.00  0.00  0.00  0.00  1.00  0.00  0.00  1.00  0.00
  12233701.1              1.00   0.00  0.00  0.00  0.00  1.00  0.00  0.00  0.00  0.00
  12233702.1              1.00   0.00  0.00  0.00  0.00  1.00  0.00  0.00  0.01  0.00
  12233703.1              1.00   0.00  0.00  0.00  0.00  1.00  0.00  0.00  1.00  0.00
  12233901.1              2.33   0.00  0.00  0.00  0.00  1.00  0.00  0.00  0.01  0.00
  12233902.1              2.66   0.00  0.00  0.00  0.00  1.00  0.00  0.00  0.00  0.00
  12233903.1              1.01   0.00  0.00  0.00  0.00  1.00  0.00  0.00  1.00  0.00
  12233907.1              1.24   0.00  0.00  0.00  0.00  1.00  0.00  0.00  1.00  0.00
  12234006.1              1.73   0.00  0.00  0.00  0.00  1.00  0.00  0.00  0.41  0.00
  12234010.1              1.00   0.00  0.00  0.00  1.00  0.00  0.00  0.00  1.00  0.00
  12234011.1              1.00   0.00  0.00  0.00  0.01  0.99  0.00  0.00  0.00  0.00
  12234013.1              1.00   0.00  0.00  0.00  1.00  0.00  0.00  0.00  1.00  0.00
  12234013.2              1.80   0.00  0.00  0.00  1.00  0.00  0.00  0.00  1.00  0.00
  12234022.2              1.00   0.00  0.00  0.00  0.00  1.00  0.00  0.00  0.00  0.00
  12234301.1              1.46   0.00  0.00  0.00  0.00  1.00  0.00  0.00  1.00  0.00
  12234302.1              1.33   0.00  0.00  0.00  0.00  1.00  0.00  0.00  1.00  0.00
  12234503.1              1.00   0.00  0.00  0.00  0.00  1.00  0.00  0.00  0.34  0.00
  12234701.1              1.65   0.00  0.00  0.00  0.00  1.00  0.00  0.00  1.00  0.00
  12234701.2             19.08   0.00  0.00  0.00  0.00  1.00  0.00  0.00  1.00  0.00
  12234702.1              1.00   1.00  0.00  0.00  0.00  0.00  0.00  0.00  0.00  0.00
  12234913.1              1.00   0.00  0.00  0.00  0.99  0.01  0.00  0.00  1.00  0.00
  12235001.1              1.00   0.00  0.00  0.00  0.01  0.99  0.00  0.00  1.00  0.00
  12235401.1              1.00   0.00  0.00  0.00  0.00  1.00  0.00  0.00  1.00  0.00
  12235402.1              1.00   0.00  0.00  0.00  0.00  1.00  0.00  0.00  1.00  0.00
  12235601.1              1.00   0.00  0.00  0.00  0.00  1.00  0.00  0.00  0.00  0.00
  12235702.1              1.00   0.00  0.00  0.00  0.22  0.78  0.00  0.00  1.00  0.00
  12235901.1              1.00   0.00  0.00  0.00  0.00  1.00  0.00  0.00  1.00  0.00
  12236401.1              1.00   0.00  0.00  0.00  0.00  1.00  0.00  0.00  1.00  0.00
  12236501.1              1.00   0.00  0.00  0.00  0.01  0.99  0.00  0.00  1.00  0.00
  12236502.1              1.00   0.00  0.00  0.00  0.00  1.00  0.00  0.00  0.01  0.00
  12236901.1              1.00   0.00  0.00  0.00  0.00  1.00  0.00  0.00  0.00  0.00
  12236902.1              1.00   0.00  0.00  0.00  0.00  1.00  0.00  0.00  0.14  0.00
  12237401.1              1.00   0.00  0.00  0.00  0.02  0.98  0.00  0.00  1.00  0.00
  12237502.1              1.00   0.00  0.00  0.00  0.00  1.00  0.00  0.00  1.00  0.00
  12238301.1              1.00   0.00  0.00  0.00  0.00  1.00  0.00  0.00  0.00  0.00
  12238602.1              1.00   0.00  0.00  0.00  0.00  1.00  0.00  0.00  0.02  0.00
  12238801.1              1.00   0.00  0.00  0.00  0.00  1.00  0.00  0.00  1.00  0.00
  12238802.1              1.00   0.00  0.00  0.00  0.00  1.00  0.00  0.00  0.04  0.00
  12239301.1              1.00   0.00  0.00  0.00  0.28  0.72  0.00  0.00  1.00  0.00
  12239501.1              1.00   0.00  0.00  0.00  0.08  0.92  0.00  0.00  1.00  0.00
  12239502.1              1.00   0.00  0.00  0.00  0.02  0.98  0.00  0.00  1.00  0.00
  12239503.1              1.00   0.00  0.00  0.00  0.86  0.14  0.00  0.00  1.00  0.00
  12240301.1              1.00   0.00  0.00  0.00  1.00  0.00  0.00  0.00  0.69  0.00
  12241001.1              1.00   0.00  0.00  0.00  1.00  0.00  0.00  0.00  0.00  0.00
  12241002.1              1.00   0.00  0.00  0.00  1.00  0.00  0.00  0.00  0.72  0.00
  12241003.1              1.12   0.00  0.00  0.00  0.89  0.00  0.00  0.10  0.89  0.00
  12241104.1              1.00   0.00  0.00  0.00  1.00  0.00  0.00  0.00  0.99  0.00
  12241201.1              2.17   0.00  0.00  0.00  1.00  0.00  0.00  0.00  0.00  0.00
  12241202.1              1.00   0.00  0.00  0.00  1.00  0.00  0.00  0.00  0.64  0.00
  12241203.1              1.11   0.00  0.00  0.00  1.00  0.00  0.00  0.00  0.76  0.00
  12241206.1              1.00   0.00  0.00  0.00  1.00  0.00  0.00  0.00  0.76  0.00
  12241301.1              1.00   0.00  0.00  0.00  0.06  0.94  0.00  0.00  1.00  0.00
  12241302.1              2.81   0.00  0.00  0.00  0.53  0.47  0.00  0.00  0.62  0.00
  12241302.2              1.00   0.00  0.99  0.00  0.01  0.00  0.00  0.00  0.75  0.00
  12241303.1              1.36   0.00  0.00  0.00  1.00  0.00  0.00  0.00  0.00  0.00
  12241303.2              2.38   0.00  0.00  0.00  1.00  0.00  0.00  0.00  0.00  0.00
  12241304.1              1.00   0.00  0.00  0.00  0.00  1.00  0.00  0.00  0.00  0.00
  12241401.1              1.00   0.00  0.00  0.00  0.29  0.02  0.00  0.70  0.30  0.00
  12241402.1              4.83   0.00  0.00  0.00  1.00  0.00  0.00  0.00  1.00  0.00
  12241404.1              1.00   0.00  0.00  0.00  1.00  0.00  0.00  0.00  1.00  0.00
  12241501.1              1.00   0.00  0.00  0.00  0.04  0.96  0.00  0.00  0.13  0.00
  12242001.1              1.00   0.00  0.00  0.00  1.00  0.00  0.00  0.00  0.97  0.00
  12242002.1              1.00   0.00  0.00  0.00  0.00  0.00  0.00  1.00  0.00  0.00
  12242003.1              1.00   0.00  0.00  0.00  0.00  0.00  0.00  1.00  0.00  0.00
  12242201.1              1.00   0.00  0.00  0.00  1.00  0.00  0.00  0.00  1.00  0.00
  12242204.1              1.02   0.00  0.00  0.00  0.72  0.28  0.00  0.00  1.00  0.00
  12242301.1              1.25   0.00  0.00  0.00  1.00  0.00  0.00  0.00  0.00  0.00
  12242302.1              4.69   0.00  0.00  0.00  0.37  0.54  0.00  0.09  0.87  0.00
  12242304.1              1.12   0.00  0.00  0.00  0.00  1.00  0.00  0.00  1.00  0.00
  12242306.1              6.81   0.00  0.00  0.00  0.62  0.38  0.00  0.00  1.00  0.00
  12243001.1              1.00   0.00  0.00  0.00  0.00  1.00  0.00  0.00  0.00  0.00
  12243103.1              1.00   0.00  0.00  0.00  0.01  0.99  0.00  0.00  1.00  0.00
  12243201.1              1.11   0.00  0.00  0.00  0.00  1.00  0.00  0.00  0.85  0.00
  12243301.1              1.00   0.00  0.00  0.00  0.00  1.00  0.00  0.00  0.01  0.00
  12243303.1              2.85   0.00  0.00  0.00  0.96  0.04  0.00  0.00  1.00  0.00
  12243305.1              1.00   0.00  0.00  0.00  0.00  1.00  0.00  0.00  0.01  0.00
  12243401.1              1.00   0.00  0.00  0.00  0.00  1.00  0.00  0.00  0.01  0.00
  12243501.1              1.00   0.00  0.00  0.00  0.01  0.99  0.00  0.00  1.00  0.00
  12244001.1              1.00   0.00  0.00  0.00  0.00  1.00  0.00  0.00  1.00  0.00
  12244005.1              1.00   0.00  0.00  0.00  0.22  0.78  0.00  0.00  1.00  0.00
  12244202.1              1.00   0.00  0.00  0.00  0.01  0.99  0.00  0.00  1.00  0.00
  12244301.1              1.00   0.00  0.00  0.00  0.00  1.00  0.00  0.00  0.02  0.00
  12244301.2              1.00   0.00  0.00  0.00  1.00  0.00  0.00  0.00  1.00  0.00
  12244302.1              1.00   0.00  0.00  0.00  1.00  0.00  0.00  0.00  1.00  0.00
  12244303.1              1.00   0.00  0.00  0.00  0.97  0.03  0.00  0.00  1.00  0.00
  12244402.1              1.00   0.00  0.00  0.00  0.00  1.00  0.00  0.00  1.00  0.00
  12244403.1              1.00   0.00  0.00  0.00  0.00  1.00  0.00  0.00  0.00  0.00
  12244502.1              1.00   0.00  0.00  0.00  0.02  0.98  0.00  0.00  1.00  0.00
  12244601.1              1.00   0.00  0.00  0.00  0.00  1.00  0.00  0.00  0.00  0.00
  12245201.1              1.00   0.00  0.00  0.00  0.00  1.00  0.00  0.00  1.00  0.00
  12245301.1              1.00   0.00  0.00  0.00  0.00  1.00  0.00  0.00  0.00  0.00
  12245402.1              1.22   0.00  0.00  0.00  0.53  0.47  0.00  0.00  1.00  0.00
  12245403.1              1.00   0.00  0.00  0.00  0.00  1.00  0.00  0.00  1.00  0.00
  12245405.1              1.00   0.00  0.00  0.00  0.83  0.17  0.00  0.00  1.00  0.00
  12245602.1              1.00   0.00  0.00  0.00  0.00  1.00  0.00  0.00  1.00  0.00
  12245701.1              1.00   0.00  0.00  0.00  0.03  0.97  0.00  0.00  1.00  0.00
  12246201.1              1.00   0.00  0.07  0.00  0.70  0.22  0.00  0.00  0.93  0.00
  12246202.1              1.00   0.00  0.00  0.00  0.00  1.00  0.00  0.00  1.00  0.00
  12246303.1              1.00   0.00  0.00  0.00  1.00  0.00  0.00  0.00  0.95  0.00
  12246401.1              1.00   0.00  0.00  0.00  1.00  0.00  0.00  0.00  1.00  0.00
  12246404.1              1.00   0.00  0.00  0.00  0.01  0.99  0.00  0.00  0.98  0.00
  12246501.1              1.00   0.00  0.00  0.00  1.00  0.00  0.00  0.00  1.00  0.00
  12246503.1              1.41   0.00  0.00  0.00  0.03  0.97  0.00  0.00  0.94  0.00
  12246601.1              1.00   0.00  0.00  0.00  0.15  0.85  0.00  0.00  0.06  0.00
  12246602.1              1.00   0.00  0.00  0.00  0.99  0.01  0.00  0.00  1.00  0.00
  12247201.1              1.00   0.00  0.00  0.00  0.99  0.01  0.00  0.00  0.99  0.00
  12247303.1              1.00   0.00  0.00  0.00  0.63  0.37  0.00  0.00  1.00  0.00
  12247402.1              1.72   0.00  0.00  0.00  0.04  0.96  0.00  0.00  1.00  0.00
  12247403.1              1.00   0.00  0.00  0.00  0.07  0.93  0.00  0.00  1.00  0.00
  12247405.1              1.00   0.00  0.00  0.00  0.61  0.39  0.00  0.00  1.00  0.00
  12247501.1              1.00   0.00  0.00  0.00  0.35  0.65  0.00  0.00  1.00  0.00
  12247704.1              1.00   0.00  0.00  0.00  0.68  0.32  0.00  0.00  1.00  0.00
  12248401.1              1.26   0.00  0.00  0.00  0.00  1.00  0.00  0.00  1.00  0.00
  12248401.2              1.54   0.00  0.00  0.00  0.05  0.95  0.00  0.00  0.41  0.00
  12248402.1              1.00   0.00  0.00  0.00  1.00  0.00  0.00  0.00  1.00  0.00
  12248502.1              1.00   0.00  0.00  0.00  1.00  0.00  0.00  0.00  1.00  0.00
  12248504.1              1.06   0.00  0.00  0.00  0.01  0.99  0.00  0.00  0.00  0.00
  12248505.1              1.00   0.00  0.00  0.00  0.95  0.05  0.00  0.00  1.00  0.00
  12248701.1              1.00   0.00  0.00  0.00  0.77  0.23  0.00  0.00  0.96  0.00
  12248702.1              1.00   0.00  0.00  0.00  1.00  0.00  0.00  0.00  1.00  0.00
  12248703.1              1.74   0.00  0.00  0.00  1.00  0.00  0.00  0.00  0.08  0.00
  12248704.1              1.00   0.00  0.00  0.00  1.00  0.00  0.00  0.00  0.00  0.00
  12248803.1              1.00   0.00  0.00  0.00  1.00  0.00  0.00  0.00  1.00  0.00
  12249603.1              1.00   0.00  0.00  0.00  0.32  0.68  0.00  0.00  1.00  0.00
  12249605.1              1.00   0.00  0.00  0.00  1.00  0.00  0.00  0.00  1.00  0.00
  12249703.1              1.00   0.00  0.00  0.00  1.00  0.00  0.00  0.00  1.00  0.00
  12249704.1              1.00   0.00  0.00  0.00  0.00  1.00  0.00  0.00  1.00  0.00
  12249801.1              1.00   0.00  0.00  0.00  0.17  0.83  0.00  0.00  0.05  0.00
  12249803.1              1.00   0.00  0.00  0.00  0.43  0.57  0.00  0.00  0.02  0.00
  13230603.1              1.15   0.00  0.00  0.00  0.00  1.00  0.00  0.00  1.00  0.00
  13230605.1              2.15   0.00  0.00  0.00  0.01  0.99  0.00  0.00  1.00  0.00
  13230701.1              1.00   0.00  0.00  0.00  0.00  1.00  0.00  0.00  1.00  0.00
  13230803.1              1.00   0.00  0.00  0.00  0.00  1.00  0.00  0.00  0.00  0.00
  13231601.1              1.00   0.00  0.00  0.00  0.00  1.00  0.00  0.00  0.00  0.00
  13231602.1              1.00   0.00  0.00  0.00  0.00  1.00  0.00  0.00  1.00  0.00
  13231802.1              7.60   0.00  0.00  0.00  0.75  0.25  0.00  0.00  1.00  0.00
  13231803.1              1.00   0.00  0.00  0.00  0.00  1.00  0.00  0.00  1.00  0.00
  13232505.1              1.00   0.00  0.00  0.00  0.01  0.99  0.00  0.00  1.00  0.00
  13232602.1              1.00   0.00  0.00  0.00  0.01  0.99  0.00  0.00  1.00  0.00
  13232701.1              2.82   0.00  0.00  0.00  0.00  1.00  0.00  0.00  1.00  0.00
  13232702.1              1.79   0.00  0.00  0.00  0.00  1.00  0.00  0.00  1.00  0.00
  13232804.1              1.64   0.00  0.00  0.00  0.00  1.00  0.00  0.00  0.01  0.00
  13233503.1              1.00   0.00  0.00  0.00  0.00  1.00  0.00  0.00  0.34  0.00
  13233601.1              1.00   0.00  0.00  0.00  0.00  1.00  0.00  0.00  0.01  0.00
  13233801.1              1.00   0.00  0.00  0.00  0.00  1.00  0.00  0.00  1.00  0.00
  13233804.1              1.00   0.00  0.00  0.00  0.00  1.00  0.00  0.00  0.12  0.00
  13234601.1              1.00   0.00  0.00  0.00  0.06  0.94  0.00  0.00  1.00  0.00
  13234803.1              1.00   0.00  0.00  0.00  0.00  1.00  0.00  0.00  0.99  0.00
  13235703.1              1.00   0.00  0.00  0.00  0.01  0.99  0.00  0.00  1.00  0.00
  13236603.1              1.00   0.00  0.00  0.00  0.00  1.00  0.00  0.00  0.15  0.00
  13237501.1              1.00   0.00  0.00  0.00  0.00  1.00  0.00  0.00  1.00  0.00
  13237601.1              1.00   0.00  0.00  0.00  0.46  0.54  0.00  0.00  1.00  0.00
  13240601.1              1.01   0.00  0.00  0.00  0.01  0.99  0.00  0.00  0.07  0.00
  13240601.2              1.00   0.00  0.00  0.00  0.73  0.27  0.00  0.00  0.00  0.00
  13240602.1              1.00   0.00  0.00  0.00  0.01  0.99  0.00  0.00  0.00  0.00
  DUMWBST1.1              2.52   1.00  0.00  0.00  0.00  0.00  0.00  0.00  0.00  0.00
  
  
  *************************
  Conduit Surcharge Summary
  *************************
  
  ----------------------------------------------------------------------------
                                                           Hours        Hours 
                         --------- Hours Full --------   Above Full   Capacity
  Conduit                Both Ends  Upstream  Dnstream   Normal Flow   Limited
  ----------------------------------------------------------------------------
  12223602.1                  0.01      0.01     22.27      0.01         0.01
  12223913.1                 23.49     23.49     23.92      0.01         0.01
  12224602.1                  0.01      0.01     23.61      0.01         0.01
  12232805.1                  0.01      0.01      3.64      0.01         0.01
  12233002.1                  0.01      0.01     11.91      0.01         0.01
  12234013.1                  0.01      0.01      2.29      0.01         0.01
  12241201.1                  2.65      2.65      2.75      0.01         0.29
  12241202.1                  2.36      2.36      2.86      0.01         0.01
  12241203.1                  0.31      0.31      2.36      0.01         0.01
  12241206.1                  0.32      0.32      2.36      0.01         0.01
  12241302.1                  0.01      0.01      0.23      0.01         0.01
  12241303.1                  0.23      0.23      0.31      0.01         0.01
  12241303.2                  0.23      0.23      0.32      0.01         0.01
  
  
  ***************
  Pumping Summary
  ***************
  
  ---------------------------------------------------------------------------------------------------------
                                                  Min       Avg       Max     Total     Power    % Time Off
                        Percent   Number of      Flow      Flow      Flow    Volume     Usage    Pump Curve
  Pump                 Utilized   Start-Ups       CFS       CFS       CFS  10^6 gal     Kw-hr    Low   High
  ---------------------------------------------------------------------------------------------------------
  12223902.1              43.17         105      0.00      1.98      1.98     0.550      2.62    0.0  100.0
  12223902.2               6.21          10      0.00      1.70      1.70     0.068      0.34    0.0  100.0
  12224506.1               4.39         325      0.00      0.06      0.06     0.002      0.38    0.0  100.0
  

  Analysis begun on:  Tue Jun 23 21:21:26 2026
  Analysis ended on:  Tue Jun 23 21:21:28 2026
  Total elapsed time: 00:00:02