
  EPA STORM WATER MANAGEMENT MODEL - VERSION 5.2 (Build 5.2.4)
  ------------------------------------------------------------

  
  ERROR 211: invalid number  at line 1201 of [XSECT] section:
  P10A-13-12       MODBASKETHANDLE 3.000000         8.000000   0.000000   0.000000   1          0         

  
  ERROR 211: invalid number  at line 1202 of [XSECT] section:
  P10A-15/1        MODBASKETHANDLE 3.000000         8.000000   0.000000   0.000000   1          0         


  Analysis begun on:  Tue Jun 23 21:21:28 2026
  Analysis ended on:  Tue Jun 23 21:21:28 2026
  Total elapsed time: < 1 sec