
  EPA STORM WATER MANAGEMENT MODEL - VERSION 5.2 (Build 5.2.4)
  ------------------------------------------------------------

  WARNING 04: minimum elevation drop used for Conduit C10-002.1
  WARNING 04: minimum elevation drop used for Conduit C20-051.1
  WARNING 04: minimum elevation drop used for Conduit C30-003B.1
  WARNING 04: minimum elevation drop used for Conduit C30-003B.2
  WARNING 04: minimum elevation drop used for Conduit C43-001A.1
  WARNING 04: minimum elevation drop used for Conduit C43-001A.2
  WARNING 04: minimum elevation drop used for Conduit GARTNERDUMMY1.1
  WARNING 04: minimum elevation drop used for Conduit GARTNERDUMMY2.1
  WARNING 04: minimum elevation drop used for Conduit GARTNERDUMMY3.1
  WARNING 04: minimum elevation drop used for Conduit GARTNERDUMMY4.1
  WARNING 04: minimum elevation drop used for Conduit S31-018.1
  WARNING 04: minimum elevation drop used for Conduit S41-086.1
  WARNING 04: minimum elevation drop used for Conduit S52-005.1
  WARNING 04: minimum elevation drop used for Conduit T01-039.1
  WARNING 04: minimum elevation drop used for Conduit T04-015.1
  WARNING 04: minimum elevation drop used for Conduit T06-012.2
  WARNING 04: minimum elevation drop used for Conduit T06-012.3
  WARNING 04: minimum elevation drop used for Conduit T06-021.1
  WARNING 04: minimum elevation drop used for Conduit T06-031.1
  WARNING 04: minimum elevation drop used for Conduit T12-004.1
  WARNING 04: minimum elevation drop used for Conduit W02-010A.1
  WARNING 04: minimum elevation drop used for Conduit W02-017.1
  WARNING 04: minimum elevation drop used for Conduit W02-017.2
  WARNING 04: minimum elevation drop used for Conduit W06-052.1
  WARNING 04: minimum elevation drop used for Conduit W08-009.1
  WARNING 04: minimum elevation drop used for Conduit W10-012B.1
  WARNING 04: minimum elevation drop used for Conduit W12-149.1
  WARNING 08: elevation drop exceeds length for Conduit WESTHIGHLANDS.1
  
  ****************
  Analysis Options
  ****************
  Flow Units ............... MGD
  Process Models:
    Rainfall/Runoff ........ YES
    RDII ................... NO
    Snowmelt ............... NO
    Groundwater ............ NO
    Flow Routing ........... YES
    Ponding Allowed ........ YES
    Water Quality .......... NO
  Infiltration Method ...... HORTON
  Flow Routing Method ...... DYNWAVE
  Surcharge Method ......... EXTRAN
  Starting Date ............ 08/08/2016 00:00:00
  Ending Date .............. 08/10/2016 00:00:00
  Antecedent Dry Days ...... 0.0
  Report Time Step ......... 00:15:00
  Wet Time Step ............ 00:05:00
  Dry Time Step ............ 01:00:00
  Routing Time Step ........ 30.00 sec
  Variable Time Step ....... YES
  Maximum Trials ........... 8
  Number of Threads ........ 1
  Head Tolerance ........... 0.005000 ft
  
  
  **************************        Volume         Depth
  Runoff Quantity Continuity     acre-feet        inches
  **************************     ---------       -------
  Total Precipitation ......         0.000         0.000
  Evaporation Loss .........         0.000         0.000
  Infiltration Loss ........         0.000         0.000
  Surface Runoff ...........         0.000         0.000
  Final Storage ............         0.000         0.000
  Continuity Error (%) .....         0.000
  
  
  **************************        Volume        Volume
  Flow Routing Continuity        acre-feet      10^6 gal
  **************************     ---------     ---------
  Dry Weather Inflow .......        89.974        29.319
  Wet Weather Inflow .......         0.000         0.000
  Groundwater Inflow .......         0.000         0.000
  RDII Inflow ..............         0.000         0.000
  External Inflow ..........         0.000         0.000
  External Outflow .........        99.362        32.379
  Flooding Loss ............         0.000         0.000
  Evaporation Loss .........         0.000         0.000
  Exfiltration Loss ........         0.000         0.000
  Initial Stored Volume ....         0.000         0.000
  Final Stored Volume ......        10.183         3.318
  Continuity Error (%) .....       -21.752
  
  
  *************************
  Highest Continuity Errors
  *************************
  Node TO_NOC_STORAGE (-129.59%)
  Node N20-012 (64.40%)
  Node W26-057 (61.22%)
  Node C03-002 (59.94%)
  Node C42-045 (34.82%)
  
  
  ***************************
  Time-Step Critical Elements
  ***************************
  Link C08-091.1 (34.18%)
  Link T05-006.1 (34.07%)
  Link C55-036B.1 (15.29%)
  Link C25-036.1 (4.63%)
  Node S15-LS500 (4.26%)
  
  
  ********************************
  Highest Flow Instability Indexes
  ********************************
  Link N24-001.1 (141)
  Link S56-050.1 (130)
  Link S57-080.1 (118)
  Link W06-011.1 (115)
  Link S51-123.1 (113)
  
  
  *********************************
  Most Frequent Nonconverging Nodes
  *********************************
  Node C10-001A_BYPASS (93.85%)
  Node NOCBASINOUTFALL (93.85%)
  Node NOCBASINOUTFALLA (93.85%)
  Node OFALL-10 (93.85%)
  Node SOCBASINOUTFALL (93.85%)
  
  
  *************************
  Routing Time Step Summary
  *************************
  Minimum Time Step           :     0.53 sec
  Average Time Step           :     7.10 sec
  Maximum Time Step           :    30.00 sec
  % of Time in Steady State   :     0.00
  Average Iterations per Step :     7.82
  % of Steps Not Converging   :    93.85
  Time Step Frequencies       :
     30.000 -  3.817 sec      :    73.66 %
      3.817 -  0.486 sec      :    26.34 %
      0.486 -  0.062 sec      :     0.00 %
      0.062 -  0.008 sec      :     0.00 %
      0.008 -  0.001 sec      :     0.00 %
  
  
  ***************************
  Subcatchment Runoff Summary
  ***************************
  
  ------------------------------------------------------------------------------------------------------------------------------
                            Total      Total      Total      Total     Imperv       Perv      Total       Total     Peak  Runoff
                           Precip      Runon       Evap      Infil     Runoff     Runoff     Runoff      Runoff   Runoff   Coeff
  Subcatchment                 in         in         in         in         in         in         in    10^6 gal      MGD
  ------------------------------------------------------------------------------------------------------------------------------
  BAILEY-WASHINGTON_1        0.00       0.00       0.00       0.00       0.00       0.00       0.00        0.00     0.00   0.000
  BAILEY-WASHINGTON_2        0.00       0.00       0.00       0.00       0.00       0.00       0.00        0.00     0.00   0.000
  BAILEY-WASHINGTON_3        0.00       0.00       0.00       0.00       0.00       0.00       0.00        0.00     0.00   0.000
  BAILEY-WASHINGTON_4        0.00       0.00       0.00       0.00       0.00       0.00       0.00        0.00     0.00   0.000
  BAILEY-WASHINGTON_5        0.00       0.00       0.00       0.00       0.00       0.00       0.00        0.00     0.00   0.000
  BAILEY-WASHINGTON_6        0.00       0.00       0.00       0.00       0.00       0.00       0.00        0.00     0.00   0.000
  BAILEY-WASHINGTON_7        0.00       0.00       0.00       0.00       0.00       0.00       0.00        0.00     0.00   0.000
  BAILEY-WASHINGTON_8        0.00       0.00       0.00       0.00       0.00       0.00       0.00        0.00     0.00   0.000
  BAUER_MILL_1               0.00       0.00       0.00       0.00       0.00       0.00       0.00        0.00     0.00   0.000
  BAUER_MILL_2               0.00       0.00       0.00       0.00       0.00       0.00       0.00        0.00     0.00   0.000
  BAUER_MILL_3               0.00       0.00       0.00       0.00       0.00       0.00       0.00        0.00     0.00   0.000
  BAUER_MILL_4               0.00       0.00       0.00       0.00       0.00       0.00       0.00        0.00     0.00   0.000
  BAUER_MILL_5               0.00       0.00       0.00       0.00       0.00       0.00       0.00        0.00     0.00   0.000
  CHICAGO10_1                0.00       0.00       0.00       0.00       0.00       0.00       0.00        0.00     0.00   0.000
  CHICAGO10_2                0.00       0.00       0.00       0.00       0.00       0.00       0.00        0.00     0.00   0.000
  CHICAGO10_3                0.00       0.00       0.00       0.00       0.00       0.00       0.00        0.00     0.00   0.000
  CHICAGO10_4                0.00       0.00       0.00       0.00       0.00       0.00       0.00        0.00     0.00   0.000
  CHICAGO10_5                0.00       0.00       0.00       0.00       0.00       0.00       0.00        0.00     0.00   0.000
  CHICAGO15_1                0.00       0.00       0.00       0.00       0.00       0.00       0.00        0.00     0.00   0.000
  CHICAGO15_2                0.00       0.00       0.00       0.00       0.00       0.00       0.00        0.00     0.00   0.000
  CHICAGO15_3                0.00       0.00       0.00       0.00       0.00       0.00       0.00        0.00     0.00   0.000
  CHICAGO15_4                0.00       0.00       0.00       0.00       0.00       0.00       0.00        0.00     0.00   0.000
  CHICAGO15_5                0.00       0.00       0.00       0.00       0.00       0.00       0.00        0.00     0.00   0.000
  CHICAGO15_6                0.00       0.00       0.00       0.00       0.00       0.00       0.00        0.00     0.00   0.000
  COACH_NORTH_1              0.00       0.00       0.00       0.00       0.00       0.00       0.00        0.00     0.00   0.000
  COACH_NORTH_2              0.00       0.00       0.00       0.00       0.00       0.00       0.00        0.00     0.00   0.000
  COACH_SOUTH_1              0.00       0.00       0.00       0.00       0.00       0.00       0.00        0.00     0.00   0.000
  COACH_SOUTH_2              0.00       0.00       0.00       0.00       0.00       0.00       0.00        0.00     0.00   0.000
  COACH_SOUTH_3              0.00       0.00       0.00       0.00       0.00       0.00       0.00        0.00     0.00   0.000
  COACH_SOUTH_4              0.00       0.00       0.00       0.00       0.00       0.00       0.00        0.00     0.00   0.000
  COACH_SOUTH_5              0.00       0.00       0.00       0.00       0.00       0.00       0.00        0.00     0.00   0.000
  COACH_SOUTH_6              0.00       0.00       0.00       0.00       0.00       0.00       0.00        0.00     0.00   0.000
  COACH_SOUTH_7              0.00       0.00       0.00       0.00       0.00       0.00       0.00        0.00     0.00   0.000
  COMBO_QQB_QTL_1            0.00       0.00       0.00       0.00       0.00       0.00       0.00        0.00     0.00   0.000
  COMBO_QQB_QTL_2            0.00       0.00       0.00       0.00       0.00       0.00       0.00        0.00     0.00   0.000
  COMBO_QQB_QTL_3            0.00       0.00       0.00       0.00       0.00       0.00       0.00        0.00     0.00   0.000
  COMBO_QQB_QTL_4            0.00       0.00       0.00       0.00       0.00       0.00       0.00        0.00     0.00   0.000
  COMBO_QQB_QTL_5            0.00       0.00       0.00       0.00       0.00       0.00       0.00        0.00     0.00   0.000
  COUNTRY_LAKES_1            0.00       0.00       0.00       0.00       0.00       0.00       0.00        0.00     0.00   0.000
  COUNTRY_LAKES_2            0.00       0.00       0.00       0.00       0.00       0.00       0.00        0.00     0.00   0.000
  HOBSON_1                   0.00       0.00       0.00       0.00       0.00       0.00       0.00        0.00     0.00   0.000
  HOBSON_2                   0.00       0.00       0.00       0.00       0.00       0.00       0.00        0.00     0.00   0.000
  HOBSON_3                   0.00       0.00       0.00       0.00       0.00       0.00       0.00        0.00     0.00   0.000
  HOBSON_MILL_1              0.00       0.00       0.00       0.00       0.00       0.00       0.00        0.00     0.00   0.000
  HOBSON_MILL_2              0.00       0.00       0.00       0.00       0.00       0.00       0.00        0.00     0.00   0.000
  HOBSON_MILL_3              0.00       0.00       0.00       0.00       0.00       0.00       0.00        0.00     0.00   0.000
  HOBSON_MILL_4              0.00       0.00       0.00       0.00       0.00       0.00       0.00        0.00     0.00   0.000
  HOBSON_MILL_5              0.00       0.00       0.00       0.00       0.00       0.00       0.00        0.00     0.00   0.000
  HOBSON_MILL_6              0.00       0.00       0.00       0.00       0.00       0.00       0.00        0.00     0.00   0.000
  HOBSON_MILL_7              0.00       0.00       0.00       0.00       0.00       0.00       0.00        0.00     0.00   0.000
  HOBSON_MILL_8              0.00       0.00       0.00       0.00       0.00       0.00       0.00        0.00     0.00   0.000
  MCDOWELL_1                 0.00       0.00       0.00       0.00       0.00       0.00       0.00        0.00     0.00   0.000
  MCDOWELL_2                 0.00       0.00       0.00       0.00       0.00       0.00       0.00        0.00     0.00   0.000
  MCDOWELL_3                 0.00       0.00       0.00       0.00       0.00       0.00       0.00        0.00     0.00   0.000
  MCDOWELL_4                 0.00       0.00       0.00       0.00       0.00       0.00       0.00        0.00     0.00   0.000
  NAPERVILLE-PLAINFIELD_1       0.00       0.00       0.00       0.00       0.00       0.00       0.00        0.00     0.00   0.000
  NAPERVILLE-PLAINFIELD_10       0.00       0.00       0.00       0.00       0.00       0.00       0.00        0.00     0.00   0.000
  NAPERVILLE-PLAINFIELD_11       0.00       0.00       0.00       0.00       0.00       0.00       0.00        0.00     0.00   0.000
  NAPERVILLE-PLAINFIELD_12       0.00       0.00       0.00       0.00       0.00       0.00       0.00        0.00     0.00   0.000
  NAPERVILLE-PLAINFIELD_13       0.00       0.00       0.00       0.00       0.00       0.00       0.00        0.00     0.00   0.000
  NAPERVILLE-PLAINFIELD_14       0.00       0.00       0.00       0.00       0.00       0.00       0.00        0.00     0.00   0.000
  NAPERVILLE-PLAINFIELD_15       0.00       0.00       0.00       0.00       0.00       0.00       0.00        0.00     0.00   0.000
  NAPERVILLE-PLAINFIELD_16       0.00       0.00       0.00       0.00       0.00       0.00       0.00        0.00     0.00   0.000
  NAPERVILLE-PLAINFIELD_17       0.00       0.00       0.00       0.00       0.00       0.00       0.00        0.00     0.00   0.000
  NAPERVILLE-PLAINFIELD_18       0.00       0.00       0.00       0.00       0.00       0.00       0.00        0.00     0.00   0.000
  NAPERVILLE-PLAINFIELD_19       0.00       0.00       0.00       0.00       0.00       0.00       0.00        0.00     0.00   0.000
  NAPERVILLE-PLAINFIELD_2       0.00       0.00       0.00       0.00       0.00       0.00       0.00        0.00     0.00   0.000
  NAPERVILLE-PLAINFIELD_20       0.00       0.00       0.00       0.00       0.00       0.00       0.00        0.00     0.00   0.000
  NAPERVILLE-PLAINFIELD_21       0.00       0.00       0.00       0.00       0.00       0.00       0.00        0.00     0.00   0.000
  NAPERVILLE-PLAINFIELD_22       0.00       0.00       0.00       0.00       0.00       0.00       0.00        0.00     0.00   0.000
  NAPERVILLE-PLAINFIELD_23       0.00       0.00       0.00       0.00       0.00       0.00       0.00        0.00     0.00   0.000
  NAPERVILLE-PLAINFIELD_24       0.00       0.00       0.00       0.00       0.00       0.00       0.00        0.00     0.00   0.000
  NAPERVILLE-PLAINFIELD_25       0.00       0.00       0.00       0.00       0.00       0.00       0.00        0.00     0.00   0.000
  NAPERVILLE-PLAINFIELD_26       0.00       0.00       0.00       0.00       0.00       0.00       0.00        0.00     0.00   0.000
  NAPERVILLE-PLAINFIELD_27       0.00       0.00       0.00       0.00       0.00       0.00       0.00        0.00     0.00   0.000
  NAPERVILLE-PLAINFIELD_28       0.00       0.00       0.00       0.00       0.00       0.00       0.00        0.00     0.00   0.000
  NAPERVILLE-PLAINFIELD_29       0.00       0.00       0.00       0.00       0.00       0.00       0.00        0.00     0.00   0.000
  NAPERVILLE-PLAINFIELD_3       0.00       0.00       0.00       0.00       0.00       0.00       0.00        0.00     0.00   0.000
  NAPERVILLE-PLAINFIELD_30       0.00       0.00       0.00       0.00       0.00       0.00       0.00        0.00     0.00   0.000
  NAPERVILLE-PLAINFIELD_4       0.00       0.00       0.00       0.00       0.00       0.00       0.00        0.00     0.00   0.000
  NAPERVILLE-PLAINFIELD_5       0.00       0.00       0.00       0.00       0.00       0.00       0.00        0.00     0.00   0.000
  NAPERVILLE-PLAINFIELD_6       0.00       0.00       0.00       0.00       0.00       0.00       0.00        0.00     0.00   0.000
  NAPERVILLE-PLAINFIELD_7       0.00       0.00       0.00       0.00       0.00       0.00       0.00        0.00     0.00   0.000
  NAPERVILLE-PLAINFIELD_8       0.00       0.00       0.00       0.00       0.00       0.00       0.00        0.00     0.00   0.000
  NAPERVILLE-PLAINFIELD_9       0.00       0.00       0.00       0.00       0.00       0.00       0.00        0.00     0.00   0.000
  NCC_1                      0.00       0.00       0.00       0.00       0.00       0.00       0.00        0.00     0.00   0.000
  NCC_2                      0.00       0.00       0.00       0.00       0.00       0.00       0.00        0.00     0.00   0.000
  NCC_3                      0.00       0.00       0.00       0.00       0.00       0.00       0.00        0.00     0.00   0.000
  NORTH_PS_1                 0.00       0.00       0.00       0.00       0.00       0.00       0.00        0.00     0.00   0.000
  NPS_INT_1                  0.00       0.00       0.00       0.00       0.00       0.00       0.00        0.00     0.00   0.000
  NPS_INT_10                 0.00       0.00       0.00       0.00       0.00       0.00       0.00        0.00     0.00   0.000
  NPS_INT_2                  0.00       0.00       0.00       0.00       0.00       0.00       0.00        0.00     0.00   0.000
  NPS_INT_3                  0.00       0.00       0.00       0.00       0.00       0.00       0.00        0.00     0.00   0.000
  NPS_INT_4                  0.00       0.00       0.00       0.00       0.00       0.00       0.00        0.00     0.00   0.000
  NPS_INT_5                  0.00       0.00       0.00       0.00       0.00       0.00       0.00        0.00     0.00   0.000
  NPS_INT_6                  0.00       0.00       0.00       0.00       0.00       0.00       0.00        0.00     0.00   0.000
  NPS_INT_7                  0.00       0.00       0.00       0.00       0.00       0.00       0.00        0.00     0.00   0.000
  NPS_INT_8                  0.00       0.00       0.00       0.00       0.00       0.00       0.00        0.00     0.00   0.000
  NPS_INT_9                  0.00       0.00       0.00       0.00       0.00       0.00       0.00        0.00     0.00   0.000
  NWPS_1                     0.00       0.00       0.00       0.00       0.00       0.00       0.00        0.00     0.00   0.000
  NWPS_2                     0.00       0.00       0.00       0.00       0.00       0.00       0.00        0.00     0.00   0.000
  NWPS_3                     0.00       0.00       0.00       0.00       0.00       0.00       0.00        0.00     0.00   0.000
  NWPS_4                     0.00       0.00       0.00       0.00       0.00       0.00       0.00        0.00     0.00   0.000
  NWPS_5                     0.00       0.00       0.00       0.00       0.00       0.00       0.00        0.00     0.00   0.000
  NWPS_6                     0.00       0.00       0.00       0.00       0.00       0.00       0.00        0.00     0.00   0.000
  NWPS_7                     0.00       0.00       0.00       0.00       0.00       0.00       0.00        0.00     0.00   0.000
  NWPS_8                     0.00       0.00       0.00       0.00       0.00       0.00       0.00        0.00     0.00   0.000
  PEBBLEWOOD_1               0.00       0.00       0.00       0.00       0.00       0.00       0.00        0.00     0.00   0.000
  PEBBLEWOOD_2               0.00       0.00       0.00       0.00       0.00       0.00       0.00        0.00     0.00   0.000
  PEBBLEWOOD_3               0.00       0.00       0.00       0.00       0.00       0.00       0.00        0.00     0.00   0.000
  PEBBLEWOOD_4               0.00       0.00       0.00       0.00       0.00       0.00       0.00        0.00     0.00   0.000
  PEBBLEWOOD_5               0.00       0.00       0.00       0.00       0.00       0.00       0.00        0.00     0.00   0.000
  PEBBLEWOOD_6               0.00       0.00       0.00       0.00       0.00       0.00       0.00        0.00     0.00   0.000
  PEBBLEWOOD_7               0.00       0.00       0.00       0.00       0.00       0.00       0.00        0.00     0.00   0.000
  PRESCOTT_1                 0.00       0.00       0.00       0.00       0.00       0.00       0.00        0.00     0.00   0.000
  PRESCOTT_2                 0.00       0.00       0.00       0.00       0.00       0.00       0.00        0.00     0.00   0.000
  PRESCOTT_3                 0.00       0.00       0.00       0.00       0.00       0.00       0.00        0.00     0.00   0.000
  PRESCOTT_4                 0.00       0.00       0.00       0.00       0.00       0.00       0.00        0.00     0.00   0.000
  PRESCOTT_5                 0.00       0.00       0.00       0.00       0.00       0.00       0.00        0.00     0.00   0.000
  PRESCOTT_6                 0.00       0.00       0.00       0.00       0.00       0.00       0.00        0.00     0.00   0.000
  PRESCOTT_7                 0.00       0.00       0.00       0.00       0.00       0.00       0.00        0.00     0.00   0.000
  PRESCOTT_8                 0.00       0.00       0.00       0.00       0.00       0.00       0.00        0.00     0.00   0.000
  RIVERVIEW_1                0.00       0.00       0.00       0.00       0.00       0.00       0.00        0.00     0.00   0.000
  RIVERVIEW_10               0.00       0.00       0.00       0.00       0.00       0.00       0.00        0.00     0.00   0.000
  RIVERVIEW_2                0.00       0.00       0.00       0.00       0.00       0.00       0.00        0.00     0.00   0.000
  RIVERVIEW_3                0.00       0.00       0.00       0.00       0.00       0.00       0.00        0.00     0.00   0.000
  RIVERVIEW_4                0.00       0.00       0.00       0.00       0.00       0.00       0.00        0.00     0.00   0.000
  RIVERVIEW_5                0.00       0.00       0.00       0.00       0.00       0.00       0.00        0.00     0.00   0.000
  RIVERVIEW_6                0.00       0.00       0.00       0.00       0.00       0.00       0.00        0.00     0.00   0.000
  RIVERVIEW_7                0.00       0.00       0.00       0.00       0.00       0.00       0.00        0.00     0.00   0.000
  RIVERVIEW_8                0.00       0.00       0.00       0.00       0.00       0.00       0.00        0.00     0.00   0.000
  RIVERVIEW_9                0.00       0.00       0.00       0.00       0.00       0.00       0.00        0.00     0.00   0.000
  SHERI_1                    0.00       0.00       0.00       0.00       0.00       0.00       0.00        0.00     0.00   0.000
  SHERI_2                    0.00       0.00       0.00       0.00       0.00       0.00       0.00        0.00     0.00   0.000
  SHERI_3                    0.00       0.00       0.00       0.00       0.00       0.00       0.00        0.00     0.00   0.000
  SHERI_4                    0.00       0.00       0.00       0.00       0.00       0.00       0.00        0.00     0.00   0.000
  SHERI_5                    0.00       0.00       0.00       0.00       0.00       0.00       0.00        0.00     0.00   0.000
  SHERI_6                    0.00       0.00       0.00       0.00       0.00       0.00       0.00        0.00     0.00   0.000
  SHERI_7                    0.00       0.00       0.00       0.00       0.00       0.00       0.00        0.00     0.00   0.000
  SOC24_1                    0.00       0.00       0.00       0.00       0.00       0.00       0.00        0.00     0.00   0.000
  SOUTH_PS_1                 0.00       0.00       0.00       0.00       0.00       0.00       0.00        0.00     0.00   0.000
  SOUTH_PS_2                 0.00       0.00       0.00       0.00       0.00       0.00       0.00        0.00     0.00   0.000
  SOUTH_PS_3                 0.00       0.00       0.00       0.00       0.00       0.00       0.00        0.00     0.00   0.000
  SOUTH_PS_4                 0.00       0.00       0.00       0.00       0.00       0.00       0.00        0.00     0.00   0.000
  SOUTH_PS_5                 0.00       0.00       0.00       0.00       0.00       0.00       0.00        0.00     0.00   0.000
  SOUTH_PS_6                 0.00       0.00       0.00       0.00       0.00       0.00       0.00        0.00     0.00   0.000
  SOUTH_PS_7                 0.00       0.00       0.00       0.00       0.00       0.00       0.00        0.00     0.00   0.000
  SOUTH_PS_8                 0.00       0.00       0.00       0.00       0.00       0.00       0.00        0.00     0.00   0.000
  SOUTH_PS_9                 0.00       0.00       0.00       0.00       0.00       0.00       0.00        0.00     0.00   0.000
  SPRINGBROOK_1              0.00       0.00       0.00       0.00       0.00       0.00       0.00        0.00     0.00   0.000
  SPRINGBROOK_10             0.00       0.00       0.00       0.00       0.00       0.00       0.00        0.00     0.00   0.000
  SPRINGBROOK_2              0.00       0.00       0.00       0.00       0.00       0.00       0.00        0.00     0.00   0.000
  SPRINGBROOK_3              0.00       0.00       0.00       0.00       0.00       0.00       0.00        0.00     0.00   0.000
  SPRINGBROOK_4              0.00       0.00       0.00       0.00       0.00       0.00       0.00        0.00     0.00   0.000
  SPRINGBROOK_5              0.00       0.00       0.00       0.00       0.00       0.00       0.00        0.00     0.00   0.000
  SPRINGBROOK_6              0.00       0.00       0.00       0.00       0.00       0.00       0.00        0.00     0.00   0.000
  SPRINGBROOK_7              0.00       0.00       0.00       0.00       0.00       0.00       0.00        0.00     0.00   0.000
  SPRINGBROOK_8              0.00       0.00       0.00       0.00       0.00       0.00       0.00        0.00     0.00   0.000
  SPRINGBROOK_9              0.00       0.00       0.00       0.00       0.00       0.00       0.00        0.00     0.00   0.000
  SPRINGBROOK_COD_1          0.00       0.00       0.00       0.00       0.00       0.00       0.00        0.00     0.00   0.000
  SPRINGBROOK_COD_2          0.00       0.00       0.00       0.00       0.00       0.00       0.00        0.00     0.00   0.000
  SPRINGBROOK_COD_3          0.00       0.00       0.00       0.00       0.00       0.00       0.00        0.00     0.00   0.000
  SPRINGBROOK_COD_4          0.00       0.00       0.00       0.00       0.00       0.00       0.00        0.00     0.00   0.000
  SPRINGBROOK_COD_5          0.00       0.00       0.00       0.00       0.00       0.00       0.00        0.00     0.00   0.000
  SPRINGBROOK_COD_6          0.00       0.00       0.00       0.00       0.00       0.00       0.00        0.00     0.00   0.000
  SPRINGBROOK_COD_7          0.00       0.00       0.00       0.00       0.00       0.00       0.00        0.00     0.00   0.000
  SPRWWTP_1                  0.00       0.00       0.00       0.00       0.00       0.00       0.00        0.00     0.00   0.000
  SPRWWTP_2                  0.00       0.00       0.00       0.00       0.00       0.00       0.00        0.00     0.00   0.000
  SWPS_1                     0.00       0.00       0.00       0.00       0.00       0.00       0.00        0.00     0.00   0.000
  SWPS_10                    0.00       0.00       0.00       0.00       0.00       0.00       0.00        0.00     0.00   0.000
  SWPS_11                    0.00       0.00       0.00       0.00       0.00       0.00       0.00        0.00     0.00   0.000
  SWPS_12                    0.00       0.00       0.00       0.00       0.00       0.00       0.00        0.00     0.00   0.000
  SWPS_2                     0.00       0.00       0.00       0.00       0.00       0.00       0.00        0.00     0.00   0.000
  SWPS_3                     0.00       0.00       0.00       0.00       0.00       0.00       0.00        0.00     0.00   0.000
  SWPS_4                     0.00       0.00       0.00       0.00       0.00       0.00       0.00        0.00     0.00   0.000
  SWPS_5                     0.00       0.00       0.00       0.00       0.00       0.00       0.00        0.00     0.00   0.000
  SWPS_6                     0.00       0.00       0.00       0.00       0.00       0.00       0.00        0.00     0.00   0.000
  SWPS_7                     0.00       0.00       0.00       0.00       0.00       0.00       0.00        0.00     0.00   0.000
  SWPS_8                     0.00       0.00       0.00       0.00       0.00       0.00       0.00        0.00     0.00   0.000
  SWPS_9                     0.00       0.00       0.00       0.00       0.00       0.00       0.00        0.00     0.00   0.000
  WARRENVILLE-CANTERA        0.00       0.00       0.00       0.00       0.00       0.00       0.00        0.00     0.00   0.000
  WARRENVILLE-FERRY          0.00       0.00       0.00       0.00       0.00       0.00       0.00        0.00     0.00   0.000
  
  
  ******************
  Node Depth Summary
  ******************
  
  ---------------------------------------------------------------------------------
                                 Average  Maximum  Maximum  Time of Max    Reported
                                   Depth    Depth      HGL   Occurrence   Max Depth
  Node                 Type         Feet     Feet     Feet  days hr:min        Feet
  ---------------------------------------------------------------------------------
  BYPASSTOSOCSTORAGE   JUNCTION     1.19     4.11   634.11     0  08:57        2.47
  C01-001B             JUNCTION     0.08     0.09   673.23     1  08:25        0.09
  C01-008              JUNCTION     0.12     0.15   679.66     1  08:24        0.15
  C01-009              JUNCTION     0.15     0.18   680.98     1  08:22        0.18
  C01-010              JUNCTION     0.20     0.24   681.53     1  08:21        0.24
  C01-011              JUNCTION     0.18     0.22   682.00     1  08:19        0.22
  C01-012              JUNCTION     0.18     0.23   682.49     0  08:14        0.23
  C01-013              JUNCTION     0.18     0.22   682.77     1  08:16        0.22
  C01-024              JUNCTION     0.17     0.21   683.97     1  08:13        0.21
  C01-028              JUNCTION     0.22     0.27   684.67     1  08:05        0.26
  C01-LS501            JUNCTION     4.51     4.62   654.62     0  02:18        4.62
  C02-001              JUNCTION     0.11     0.13   682.76     1  09:03        0.13
  C02-002              JUNCTION     0.11     0.13   684.75     1  09:00        0.13
  C02-003              JUNCTION     0.10     0.13   688.50     1  08:57        0.13
  C02-003A             JUNCTION     0.11     0.13   686.92     1  09:00        0.13
  C02-004              JUNCTION     0.14     0.17   689.99     1  08:53        0.17
  C02-004A             JUNCTION     0.14     0.18   689.51     1  08:55        0.18
  C02-018B             JUNCTION     0.18     0.22   695.18     1  08:02        0.21
  C02-032              JUNCTION     0.17     0.20   690.55     1  08:48        0.20
  C02-034              JUNCTION     0.13     0.16   691.29     1  08:49        0.16
  C02-035              JUNCTION     0.15     0.18   691.93     1  08:38        0.18
  C02-036              JUNCTION     0.01     0.02   691.93     0  08:42        0.02
  C02-042              JUNCTION     0.13     0.16   692.93     1  08:49        0.16
  C02-051              JUNCTION     0.12     0.15   694.35     1  08:36        0.15
  C02-052              JUNCTION     0.13     0.16   694.35     1  08:27        0.16
  C02-053              JUNCTION     0.32     0.36   694.46     1  08:46        0.36
  C02-054              JUNCTION     0.13     0.16   694.95     1  08:13        0.16
  C028-28USNEW         JUNCTION     0.00     0.00   678.04     0  00:00        0.00
  C03-002              JUNCTION     0.52     0.55   719.84     1  08:03        0.54
  C03-002A             JUNCTION     0.06     0.07   719.83     1  08:04        0.07
  C04-067              JUNCTION     0.10     0.12   669.00     0  09:15        0.12
  C04-068              JUNCTION     0.09     0.11   670.25     0  09:14        0.11
  C04-069              JUNCTION     0.08     0.10   666.74     0  09:16        0.10
  C04-072              JUNCTION     0.11     0.14   671.54     0  09:13        0.14
  C04-074              JUNCTION     0.11     0.14   671.90     0  09:11        0.14
  C04-074A             JUNCTION     0.12     0.15   671.99     0  09:11        0.15
  C05-001              JUNCTION     0.05     0.06   666.09     1  22:22        0.06
  C05-007              JUNCTION     0.06     0.08   667.03     0  09:21        0.08
  C05-008              JUNCTION     2.12     2.41   667.15     1  16:56        2.34
  C05-008A             JUNCTION     1.89     2.16   667.15     1  16:56        2.10
  C05-009              JUNCTION     0.09     0.12   669.32     1  09:17        0.12
  C05-010              JUNCTION     0.15     0.18   670.56     1  09:08        0.18
  C05-011              JUNCTION     0.08     0.09   672.35     1  09:09        0.09
  C05-012              JUNCTION     0.09     0.12   676.52     1  09:08        0.12
  C05-012A             JUNCTION     0.09     0.11   680.43     1  09:06        0.11
  C05-013              JUNCTION     0.18     0.21   666.48     1  22:21        0.21
  C05-014              JUNCTION     0.13     0.16   666.93     1  22:20        0.16
  C05-015              JUNCTION     0.00     0.00   667.84     0  00:00        0.00
  C05-016              JUNCTION     0.00     0.00   674.64     0  00:00        0.00
  C05-033              JUNCTION     0.12     0.15   668.52     1  22:17        0.15
  C05-033B             JUNCTION     0.13     0.15   667.72     1  22:18        0.15
  C05-038              JUNCTION     0.18     0.22   671.50     1  22:15        0.22
  C05-038A             JUNCTION     0.10     0.12   671.07     1  22:16        0.12
  C05-056              JUNCTION     0.13     0.16   672.48     1  22:13        0.16
  C05-057              JUNCTION     0.12     0.15   673.61     1  22:11        0.15
  C05-058              JUNCTION     0.14     0.17   674.35     1  22:10        0.17
  C05-066              JUNCTION     0.10     0.12   678.70     1  22:08        0.12
  C05-067              JUNCTION     0.13     0.15   680.83     1  22:07        0.15
  C05-067A             JUNCTION     0.09     0.12   680.47     1  22:08        0.11
  C05-068              JUNCTION     0.19     0.24   681.09     1  08:49        0.24
  C05-068A             JUNCTION     0.44     0.50   681.10     1  08:48        0.50
  C05-069              JUNCTION     0.21     0.25   682.03     1  22:06        0.25
  C05-070              JUNCTION     0.18     0.22   685.02     1  22:05        0.22
  C05-071              JUNCTION     0.15     0.19   688.00     1  22:05        0.19
  C06-005              JUNCTION     0.13     0.16   666.72     1  08:38        0.16
  C06-005A             JUNCTION     0.11     0.13   669.26     1  08:42        0.13
  C06-006              JUNCTION     0.11     0.14   671.58     1  08:41        0.14
  C06-010              JUNCTION     0.11     0.13   674.29     1  08:40        0.13
  C06-011              JUNCTION     0.11     0.13   676.66     1  08:38        0.13
  C06-012              JUNCTION     0.09     0.11   681.42     1  08:37        0.11
  C06-013              JUNCTION     0.09     0.11   686.53     1  08:36        0.11
  C06-018              JUNCTION     0.19     0.23   689.34     1  22:04        0.23
  C06-019              JUNCTION     0.26     0.32   690.40     1  22:03        0.32
  C06-021              JUNCTION     0.11     0.13   693.43     1  08:35        0.13
  C06-028              JUNCTION     0.10     0.13   699.86     1  08:33        0.13
  C06-031              JUNCTION     0.06     0.07   701.97     1  08:31        0.07
  C06-032              JUNCTION     0.08     0.09   702.81     1  08:23        0.09
  C06-033              JUNCTION     0.06     0.07   705.88     1  08:10        0.07
  C06-033A             JUNCTION     0.06     0.07   704.43     1  08:19        0.07
  C06-034              JUNCTION     0.06     0.08   707.19     1  08:04        0.08
  C06-049              JUNCTION     0.11     0.13   703.89     0  08:10        0.13
  C06-056              JUNCTION     0.13     0.16   705.86     0  08:05        0.16
  C06-063              JUNCTION     0.07     0.09   667.60     0  09:03        0.09
  C06-063A             JUNCTION     0.08     0.09   665.74     0  09:03        0.09
  C06-064              JUNCTION     0.04     0.05   677.92     0  09:01        0.05
  C06-065              JUNCTION     0.04     0.05   692.40     1  09:00        0.05
  C06-065A             JUNCTION     0.08     0.10   694.30     1  08:58        0.10
  C06-069              JUNCTION     0.06     0.08   695.49     1  08:56        0.08
  C06-070              JUNCTION     0.05     0.06   700.65     1  08:17        0.06
  C06-071              JUNCTION     0.05     0.07   703.51     1  08:11        0.07
  C06-072              JUNCTION     0.08     0.10   704.48     0  08:07        0.10
  C06-081              JUNCTION     0.06     0.07   695.77     1  08:54        0.07
  C06-082              JUNCTION     0.06     0.08   696.05     1  08:41        0.08
  C06-083              JUNCTION     0.05     0.06   696.78     0  09:04        0.06
  C06-084              JUNCTION     0.05     0.06   697.79     1  08:32        0.06
  C06-085              JUNCTION     0.05     0.06   698.83     0  08:23        0.06
  C06-086              JUNCTION     0.07     0.09   699.12     0  08:54        0.09
  C06-087              JUNCTION     0.05     0.06   699.63     1  09:00        0.06
  C06-088              JUNCTION     0.14     0.17   700.08     0  09:00        0.17
  C06-089              JUNCTION     0.09     0.11   701.07     1  08:27        0.11
  C07-011              JUNCTION     0.34     0.41   679.02     0  22:00        0.41
  C07-021C             JUNCTION     0.31     0.37   680.29     0  22:02        0.37
  C07-023              JUNCTION     0.13     0.16   680.66     0  09:00        0.16
  C07-023A             JUNCTION     0.16     0.19   680.62     0  09:00        0.19
  C07-027              JUNCTION     0.11     0.14   681.56     0  09:00        0.14
  C07-028              JUNCTION     0.11     0.13   682.64     0  09:00        0.13
  C07-029A             JUNCTION     0.07     0.09   690.36     0  08:26        0.09
  C07-033              JUNCTION     0.13     0.15   685.99     0  09:00        0.15
  C07-034              JUNCTION     0.18     0.22   691.34     0  09:00        0.22
  C07-034A             JUNCTION     0.14     0.17   692.19     0  09:00        0.17
  C07-035              JUNCTION     0.14     0.17   682.22     0  22:01        0.17
  C07-035A             JUNCTION     0.26     0.31   680.57     0  22:01        0.31
  C07-035B             JUNCTION     0.51     0.60   680.42     0  22:02        0.60
  C07-036              JUNCTION     0.14     0.17   704.57     0  09:00        0.17
  C07-036A             JUNCTION     0.13     0.16   715.66     0  09:00        0.16
  C07-037              JUNCTION     0.15     0.18   716.73     0  09:02        0.18
  C07-041              JUNCTION     0.82     0.90   683.73     0  10:06        0.90
  C07-041A             JUNCTION     0.14     0.17   683.65     0  10:07        0.17
  C07-041B             JUNCTION     0.16     0.19   684.86     0  10:02        0.19
  C07-042              JUNCTION     0.17     0.21   686.02     0  10:01        0.21
  C07-046              JUNCTION     0.18     0.22   686.48     0  10:00        0.22
  C07-047              JUNCTION     0.20     0.25   686.92     0  10:00        0.25
  C07-048              JUNCTION     0.15     0.19   688.44     0  09:59        0.19
  C07-050              JUNCTION     0.13     0.16   689.30     0  09:58        0.16
  C07-056              JUNCTION     0.21     0.26   690.32     0  09:57        0.26
  C07-056A             JUNCTION     0.18     0.23   689.90     0  09:58        0.23
  C07-058              JUNCTION     0.25     0.31   690.60     0  09:56        0.31
  C07-062              JUNCTION     0.23     0.29   690.78     0  09:55        0.29
  C07-063              JUNCTION     0.27     0.33   691.06     0  09:54        0.33
  C07-066              JUNCTION     0.87     0.93   692.66     0  09:52        0.93
  C07-066A             JUNCTION     0.65     0.71   692.66     0  09:51        0.71
  C07-067              JUNCTION     0.21     0.26   692.67     0  09:51        0.26
  C07-067A             JUNCTION     0.21     0.25   692.90     1  22:10        0.25
  C07-067B             JUNCTION     0.24     0.29   693.05     0  09:45        0.29
  C07-067C             JUNCTION     0.26     0.31   693.17     0  09:43        0.31
  C07-067D             JUNCTION     0.23     0.28   693.66     0  09:38        0.28
  C07-067E             JUNCTION     0.13     0.16   694.67     0  09:34        0.16
  C07-068              JUNCTION     1.14     1.20   692.66     0  09:52        1.20
  C07-069              JUNCTION     1.26     1.32   692.65     0  09:52        1.32
  C07-071              JUNCTION     0.16     0.19   692.63     0  09:53        0.19
  C07-078              JUNCTION     0.18     0.22   719.06     0  09:00        0.22
  C07-079              JUNCTION     0.44     0.52   719.27     0  09:02        0.52
  C07-LS500            JUNCTION     1.14     1.15   678.29     0  00:26        1.15
  C08-001              JUNCTION     0.14     0.17   672.13     0  09:06        0.17
  C08-002              JUNCTION     0.42     0.47   672.19     0  09:05        0.47
  C08-007              JUNCTION     0.19     0.23   672.59     0  09:03        0.23
  C08-007A             JUNCTION     0.20     0.25   672.28     0  09:04        0.25
  C08-010              JUNCTION     0.16     0.19   673.65     0  09:03        0.19
  C08-011              JUNCTION     0.17     0.20   673.86     0  09:02        0.20
  C08-012              JUNCTION     0.15     0.18   674.10     0  09:02        0.18
  C08-013              JUNCTION     0.29     0.34   674.21     0  09:01        0.34
  C08-014              JUNCTION     0.36     0.42   674.24     0  09:01        0.42
  C08-016              JUNCTION     0.15     0.19   674.65     0  09:00        0.19
  C08-017              JUNCTION     0.15     0.18   675.25     0  09:00        0.18
  C08-018              JUNCTION     0.20     0.24   675.56     0  09:00        0.24
  C08-024              JUNCTION     0.29     0.35   675.69     0  09:00        0.35
  C08-025              JUNCTION     0.19     0.22   676.47     0  08:12        0.22
  C08-025A             JUNCTION     0.15     0.19   676.21     1  08:14        0.19
  C08-026              JUNCTION     0.21     0.25   676.73     0  08:11        0.25
  C08-027              JUNCTION     0.17     0.21   677.04     1  08:10        0.21
  C08-028              JUNCTION     0.23     0.28   677.32     1  08:05        0.28
  C08-085              JUNCTION     0.18     0.22   681.09     1  09:07        0.22
  C08-085A             JUNCTION     0.18     0.22   681.74     1  09:05        0.22
  C08-086A             JUNCTION     0.18     0.23   680.19     0  09:09        0.23
  C08-087              JUNCTION     0.33     0.39   678.81     0  09:12        0.39
  C08-088              JUNCTION     0.16     0.20   678.71     0  09:13        0.20
  C08-090              JUNCTION     0.29     0.36   688.54     0  22:09        0.36
  C08-091              JUNCTION     0.57     0.72   690.45     0  22:08        0.72
  C08-092              JUNCTION     1.12     2.01   693.34     0  22:08        1.99
  C10-001              JUNCTION     4.07     4.15   662.15     0  09:01        4.15
  C10-001A             JUNCTION     1.10     1.23   662.10     0  22:08        1.23
  C10-002              JUNCTION     4.07     4.16   662.16     0  09:01        4.16
  C10-003              JUNCTION     0.13     0.16   663.45     0  09:00        0.16
  C10-004              JUNCTION     0.19     0.23   663.71     1  08:20        0.23
  C10-005              JUNCTION     0.11     0.14   663.79     0  09:00        0.14
  C10-006              JUNCTION     0.12     0.14   664.95     0  09:00        0.14
  C10-007              JUNCTION     0.12     0.14   666.09     0  08:58        0.14
  C10-007A             JUNCTION     0.17     0.21   665.54     0  09:00        0.21
  C10-008A             JUNCTION     0.11     0.13   667.40     1  08:32        0.13
  C10-017A             JUNCTION     0.00     0.00   664.93     0  00:00        0.00
  C10-017B             JUNCTION     0.00     0.00   664.89     0  00:00        0.00
  C10-018              JUNCTION     0.00     0.00   664.99     0  00:00        0.00
  C10-019              JUNCTION     0.00     0.00   664.74     0  00:00        0.00
  C11-001              JUNCTION     0.25     0.29   662.65     0  09:03        0.29
  C11-001A             JUNCTION     2.40     2.60   658.60     0  22:07        2.60
  C11-002              JUNCTION     0.18     0.21   662.96     0  09:02        0.21
  C11-003              JUNCTION     0.18     0.22   663.64     1  08:28        0.22
  C11-004              JUNCTION     0.25     0.30   663.95     0  09:00        0.30
  C11-005              JUNCTION     0.00     0.00   664.17     0  00:00        0.00
  C11-006              JUNCTION     0.00     0.00   664.88     0  00:00        0.00
  C11-010              JUNCTION     0.17     0.20   664.89     0  09:00        0.20
  C11-015              JUNCTION     0.11     0.13   672.96     1  08:25        0.13
  C12-004              JUNCTION     0.26     0.32   665.95     0  22:01        0.32
  C12-005              JUNCTION     0.31     0.38   668.72     0  22:01        0.38
  C12-007A             JUNCTION     0.09     0.11   667.91     0  22:09        0.11
  C12-008              JUNCTION     0.35     0.43   671.25     0  22:00        0.43
  C12-011              JUNCTION     0.47     0.58   672.39     0  22:00        0.58
  C12-015              JUNCTION     0.33     0.41   664.99     0  22:02        0.41
  C12-016              JUNCTION     0.48     0.58   662.73     0  22:03        0.58
  C12-017              JUNCTION     0.58     0.70   662.10     0  22:04        0.70
  C13-007              JUNCTION     0.16     0.19   670.64     0  22:09        0.19
  C13-012              JUNCTION     0.32     0.38   670.85     0  22:08        0.38
  C13-013              JUNCTION     0.17     0.21   671.50     0  22:06        0.21
  C13-013A             JUNCTION     0.21     0.26   671.45     0  22:07        0.25
  C13-019              JUNCTION     0.19     0.23   672.86     0  22:04        0.23
  C13-019A             JUNCTION     0.20     0.24   672.53     0  22:05        0.24
  C13-019B             JUNCTION     0.16     0.20   673.67     0  22:04        0.20
  C13-020              JUNCTION     0.07     0.08   675.88     0  09:00        0.08
  C13-021              JUNCTION     0.06     0.07   682.37     0  09:00        0.07
  C13-022              JUNCTION     0.00     0.00   685.54     0  00:00        0.00
  C13-023              JUNCTION     0.05     0.07   694.29     0  09:00        0.07
  C13-023A             JUNCTION     0.47     0.49   698.72     1  09:00        0.49
  C13-023B             JUNCTION     0.05     0.07   693.32     0  09:00        0.07
  C13-025              JUNCTION     0.20     0.24   674.24     0  22:03        0.24
  C13-025B             JUNCTION     0.39     0.48   673.70     0  22:00        0.48
  C13-030              JUNCTION     0.32     0.39   674.98     0  22:03        0.39
  C13-031              JUNCTION     0.30     0.37   675.55     0  22:02        0.37
  C13-031A             JUNCTION     0.35     0.42   675.80     0  22:02        0.42
  C13-032              JUNCTION     0.33     0.41   676.70     0  22:01        0.41
  C13-054              JUNCTION     0.39     0.47   677.44     0  22:00        0.47
  C13-054A             JUNCTION     0.23     0.28   677.64     0  22:00        0.28
  C15-001              JUNCTION     0.10     0.12   732.34     0  08:24        0.12
  C15-002              JUNCTION     0.11     0.13   729.59     0  08:27        0.13
  C15-003              JUNCTION     0.10     0.12   728.91     0  08:28        0.12
  C15-006              JUNCTION     0.11     0.13   727.93     0  08:29        0.13
  C15-007              JUNCTION     0.08     0.09   726.61     1  08:30        0.09
  C15-012              JUNCTION     0.14     0.17   724.51     0  08:35        0.17
  C15-014              JUNCTION     0.06     0.07   724.94     0  09:00        0.07
  C15-016              JUNCTION     0.05     0.06   725.99     1  08:58        0.06
  C16-009              JUNCTION     0.19     0.23   722.71     0  08:52        0.23
  C16-010              JUNCTION     0.19     0.23   721.78     1  08:38        0.23
  C16-011              JUNCTION     0.18     0.22   720.70     0  09:00        0.22
  C16-012              JUNCTION     0.25     0.31   719.91     0  09:01        0.31
  C16-012A             JUNCTION     0.11     0.13   726.03     1  09:06        0.13
  C16-013              JUNCTION     0.11     0.14   728.34     1  09:05        0.14
  C16-014              JUNCTION     0.11     0.14   731.54     1  09:04        0.14
  C16-015              JUNCTION     0.11     0.14   738.57     1  09:03        0.14
  C16-016              JUNCTION     0.15     0.18   740.10     1  09:02        0.18
  C16-016A             JUNCTION     0.15     0.19   740.21     1  09:02        0.19
  C16-023              JUNCTION     0.14     0.17   723.61     0  08:44        0.17
  C17-017              JUNCTION     0.25     0.30   732.68     0  08:14        0.30
  C17-072              JUNCTION     0.15     0.18   741.30     1  09:01        0.18
  C17-073              JUNCTION     0.89     0.94   741.36     1  09:00        0.94
  C17-074              JUNCTION     0.16     0.19   742.41     1  08:59        0.19
  C17-075              JUNCTION     0.17     0.21   743.65     1  08:52        0.21
  C17-075A             JUNCTION     0.15     0.18   743.58     1  08:53        0.18
  C17-076              JUNCTION     0.15     0.19   745.15     1  08:32        0.19
  C19-074              JUNCTION     0.14     0.17   704.72     0  08:29        0.17
  C20-007              JUNCTION     0.07     0.09   659.80     0  08:19        0.09
  C20-008              JUNCTION     0.15     0.18   660.50     0  08:10        0.18
  C20-044A             JUNCTION     2.48     2.71   658.62     1  10:09        2.69
  C20-051              JUNCTION     7.85     8.01   660.34     0  08:22        8.01
  C20-051B             JUNCTION     7.76     7.86   660.19     0  08:24        7.86
  C20-052              JUNCTION     0.09     0.10   664.18     1  08:20        0.10
  C20-056              JUNCTION     0.15     0.18   664.84     1  08:20        0.18
  C20-057              JUNCTION     0.12     0.14   668.35     1  08:17        0.14
  C20-058              JUNCTION     0.13     0.15   671.17     0  08:12        0.15
  C20-059              JUNCTION     0.09     0.11   683.50     1  08:12        0.11
  C20-060              JUNCTION     0.12     0.14   688.04     1  08:09        0.14
  C20-060A             JUNCTION     0.14     0.18   689.72     0  08:06        0.18
  C20-061              JUNCTION     0.13     0.16   690.40     1  08:16        0.16
  C20-062              JUNCTION     0.15     0.19   691.33     1  08:02        0.19
  C21-001              JUNCTION     0.13     0.16   660.27     1  09:04        0.16
  C21-001A             JUNCTION     0.25     0.30   657.17     1  09:05        0.30
  C21-002              JUNCTION     0.13     0.16   663.47     1  09:02        0.16
  C21-003              JUNCTION     0.12     0.15   667.62     1  09:01        0.15
  C21-014              JUNCTION     0.11     0.14   674.78     1  09:00        0.14
  C21-020              JUNCTION     0.14     0.17   678.79     1  08:58        0.17
  C21-024              JUNCTION     0.14     0.17   685.87     1  08:43        0.17
  C21-027              JUNCTION     0.15     0.18   689.49     1  08:40        0.18
  C21-030              JUNCTION     0.15     0.18   693.06     1  08:39        0.18
  C21-031              JUNCTION     0.15     0.18   693.32     1  08:38        0.18
  C21-034              JUNCTION     0.19     0.24   679.68     1  08:56        0.24
  C21-035              JUNCTION     0.16     0.20   680.90     1  08:54        0.20
  C21-036              JUNCTION     0.26     0.31   681.36     1  08:51        0.31
  C21-037A             JUNCTION     0.20     0.25   682.00     1  08:47        0.25
  C23-069              JUNCTION     0.31     0.37   721.99     0  08:59        0.37
  C23-069A             JUNCTION     0.18     0.22   721.85     0  08:41        0.22
  C23-071              JUNCTION     0.20     0.24   722.04     1  08:48        0.24
  C24-006              JUNCTION     0.11     0.13   675.61     0  09:09        0.13
  C24-006A             JUNCTION     0.12     0.15   676.77     0  09:04        0.15
  C24-039              JUNCTION     0.13     0.16   675.65     0  09:02        0.16
  C24-040              JUNCTION     0.16     0.20   676.16     0  09:02        0.20
  C24-041              JUNCTION     0.15     0.19   676.90     0  09:02        0.19
  C24-042              JUNCTION     0.15     0.18   678.17     0  09:01        0.18
  C24-044              JUNCTION     0.16     0.20   679.15     0  09:01        0.20
  C25-001              JUNCTION     0.09     0.12   680.90     0  09:01        0.12
  C25-001A             JUNCTION     4.91     5.03   679.23     1  09:03        5.03
  C25-002              JUNCTION     0.40     0.48   681.20     0  09:00        0.48
  C25-004              JUNCTION     0.00     0.00   686.92     0  00:00        0.00
  C25-005              JUNCTION     0.00     0.00   687.66     0  00:00        0.00
  C25-006              JUNCTION     0.00     0.00   689.42     0  00:00        0.00
  C25-007              JUNCTION     0.00     0.00   690.30     0  00:00        0.00
  C25-008              JUNCTION     0.00     0.00   691.35     0  00:00        0.00
  C25-009              JUNCTION     0.00     0.00   691.98     0  00:00        0.00
  C25-010              JUNCTION     0.00     0.00   692.46     0  00:00        0.00
  C25-011              JUNCTION     0.00     0.00   694.54     0  00:00        0.00
  C25-014              JUNCTION     0.00     0.00   683.92     0  00:00        0.00
  C25-015              JUNCTION     0.00     0.00   685.37     0  00:00        0.00
  C25-020              JUNCTION     0.00     0.00   686.70     0  00:00        0.00
  C25-021              JUNCTION     0.00     0.00   687.40     0  00:00        0.00
  C25-022              JUNCTION     0.00     0.00   689.62     0  00:00        0.00
  C25-023              JUNCTION     0.00     0.00   688.06     0  00:00        0.00
  C25-024              JUNCTION     0.00     0.00   689.01     0  00:00        0.00
  C25-025              JUNCTION     0.00     0.00   691.64     0  00:00        0.00
  C25-026              JUNCTION     0.00     0.00   691.87     0  00:00        0.00
  C25-030              JUNCTION     0.18     0.23   681.46     0  09:00        0.23
  C25-031              JUNCTION     0.16     0.19   682.15     0  09:00        0.19
  C25-034              JUNCTION     0.11     0.14   684.82     0  09:00        0.14
  C25-036              JUNCTION     0.60     0.64   684.87     0  09:00        0.64
  C25-036A             JUNCTION     0.80     0.84   684.87     0  09:00        0.84
  C25-037              JUNCTION     0.00     0.00   685.33     0  00:00        0.00
  C25-038              JUNCTION     0.00     0.00   689.34     0  00:00        0.00
  C25-039              JUNCTION     0.00     0.00   690.38     0  00:00        0.00
  C25-040              JUNCTION     0.00     0.00   690.98     0  00:00        0.00
  C25-041              JUNCTION     0.00     0.00   700.03     0  00:00        0.00
  C25-042              JUNCTION     0.00     0.00   692.75     0  00:00        0.00
  C25-043              JUNCTION     0.00     0.00   693.53     0  00:00        0.00
  C25-044              JUNCTION     0.00     0.00   695.50     0  00:00        0.00
  C25-045              JUNCTION     0.00     0.00   699.54     0  00:00        0.00
  C25-046              JUNCTION     0.00     0.00   685.03     0  00:00        0.00
  C25-047              JUNCTION     0.00     0.00   686.09     0  00:00        0.00
  C25-048              JUNCTION     0.00     0.00   688.08     0  00:00        0.00
  C25-050              JUNCTION     0.00     0.00   688.54     0  00:00        0.00
  C25-051              JUNCTION     0.00     0.00   688.88     0  00:00        0.00
  C25-053              JUNCTION     0.00     0.00   689.34     0  00:00        0.00
  C25-054              JUNCTION     0.00     0.00   690.75     0  00:00        0.00
  C25-055              JUNCTION     0.00     0.00   691.78     0  00:00        0.00
  C25-056              JUNCTION     0.00     0.00   692.63     0  00:00        0.00
  C25-057              JUNCTION     0.00     0.00   690.38     0  00:00        0.00
  C26-001              JUNCTION     0.17     0.21   681.81     1  08:56        0.21
  C26-002              JUNCTION     0.37     0.44   681.29     1  08:09        0.44
  C26-026              JUNCTION     0.20     0.24   681.06     1  08:14        0.24
  C26-027              JUNCTION     0.26     0.32   680.28     1  08:53        0.32
  C26-029              JUNCTION     0.28     0.34   680.06     0  08:53        0.34
  C26-030              JUNCTION     0.20     0.25   679.87     0  08:57        0.25
  C26-031              JUNCTION     0.31     0.37   679.28     1  08:18        0.37
  C26-032              JUNCTION     0.22     0.27   678.88     1  08:22        0.27
  C26-033              JUNCTION     0.18     0.23   678.12     1  08:24        0.23
  C26-034              JUNCTION     0.24     0.30   677.48     1  08:29        0.30
  C26-035              JUNCTION     0.65     0.73   677.34     0  08:44        0.73
  C26-035A             JUNCTION     1.12     1.22   677.33     1  08:35        1.20
  C27-001              JUNCTION     0.23     0.27   682.44     0  08:40        0.27
  C27-031              JUNCTION     0.00     0.00   686.22     0  00:00        0.00
  C27-032              JUNCTION     0.00     0.00   685.24     0  00:00        0.00
  C27-034              JUNCTION     0.16     0.20   685.17     1  08:27        0.20
  C27-035              JUNCTION     0.20     0.25   684.24     0  08:05        0.25
  C27-036              JUNCTION     0.17     0.20   683.85     1  08:12        0.20
  C28-001              JUNCTION     0.19     0.24   671.02     1  08:33        0.24
  C28-002              JUNCTION     0.27     0.33   671.81     1  08:33        0.33
  C28-003A             JUNCTION     0.20     0.25   675.29     1  08:32        0.25
  C28-010              JUNCTION     0.24     0.30   678.90     1  08:29        0.30
  C28-012              JUNCTION     1.01     1.18   679.18     0  08:28        1.17
  C28-013              JUNCTION     0.28     0.35   679.64     0  08:28        0.35
  C28-014              JUNCTION     0.52     0.65   680.35     0  08:24        0.65
  C28-032              JUNCTION     0.32     0.39   681.23     1  08:18        0.39
  C28-033              JUNCTION     0.35     0.43   682.17     0  08:12        0.43
  C28-049              JUNCTION     0.40     0.49   683.76     1  08:10        0.49
  C28-049A             JUNCTION     0.31     0.39   683.12     1  08:15        0.39
  C28-059              JUNCTION     0.30     0.37   685.19     0  08:21        0.37
  C29-002              JUNCTION     0.15     0.20   671.70     0  09:25        0.20
  C29-004              JUNCTION     0.30     0.40   672.13     0  09:23        0.40
  C29-018              JUNCTION     0.11     0.14   679.21     0  09:18        0.14
  C29-019              JUNCTION     0.16     0.22   680.87     0  09:17        0.22
  C29-020              JUNCTION     0.15     0.21   682.21     1  09:11        0.21
  C29-024              JUNCTION     0.17     0.23   683.59     0  09:10        0.23
  C29-025              JUNCTION     0.16     0.22   685.07     0  09:09        0.22
  C29-026              JUNCTION     0.19     0.26   685.97     0  09:00        0.26
  C30-001              JUNCTION     0.12     0.16   670.40     0  09:26        0.16
  C30-002              JUNCTION     0.11     0.15   666.84     0  09:27        0.15
  C30-003              JUNCTION     0.13     0.17   663.39     1  09:30        0.17
  C30-003A             JUNCTION     0.21     0.27   659.64     1  09:30        0.27
  C30-003B             JUNCTION     7.27     7.64   655.14     0  10:26        7.63
  C30-006              JUNCTION     0.15     0.19   666.41     1  08:21        0.19
  C30-006A             JUNCTION     1.18     1.26   666.44     1  08:24        1.24
  C30-007              JUNCTION     0.00     0.00   667.30     0  00:00        0.00
  C30-008              JUNCTION     0.12     0.14   667.75     0  08:20        0.14
  C30-009              JUNCTION     0.25     0.30   668.15     0  08:20        0.30
  C30-010              JUNCTION     0.15     0.19   669.02     1  08:17        0.19
  C30-010A             JUNCTION     0.14     0.17   671.33     1  08:15        0.17
  C30-010B             JUNCTION     0.16     0.20   672.37     0  08:13        0.20
  C30-011              JUNCTION     0.14     0.18   663.23     1  09:32        0.18
  C30-012              JUNCTION     0.13     0.17   663.05     1  09:35        0.17
  C30-014              JUNCTION     0.07     0.09   662.68     1  09:36        0.09
  C30-015              JUNCTION     0.67     0.72   662.50     1  09:09        0.72
  C30-016              JUNCTION     0.56     0.61   662.50     1  09:09        0.61
  C30-017              JUNCTION     1.04     1.09   662.50     1  09:09        1.09
  C30-020              JUNCTION     0.00     0.00   669.54     0  00:00        0.00
  C30-021              JUNCTION     0.00     0.00   669.69     0  00:00        0.00
  C30-022              JUNCTION     0.00     0.00   670.16     0  00:00        0.00
  C30-023              JUNCTION     0.00     0.00   670.62     0  00:00        0.00
  C32-001              JUNCTION     0.49     0.55   689.02     1  08:33        0.55
  C32-001B             JUNCTION     0.11     0.14   695.85     0  08:00        0.14
  C32-002              JUNCTION     0.22     0.27   689.14     1  08:27        0.27
  C32-003              JUNCTION     0.22     0.27   689.39     1  08:23        0.27
  C32-004              JUNCTION     0.22     0.27   689.70     1  08:24        0.27
  C32-005              JUNCTION     0.22     0.27   689.92     1  08:22        0.27
  C32-006              JUNCTION     0.22     0.26   690.35     1  08:21        0.26
  C32-007              JUNCTION     0.22     0.27   690.71     1  08:16        0.27
  C32-008              JUNCTION     0.17     0.20   691.12     1  08:26        0.20
  C32-009              JUNCTION     0.20     0.24   691.96     1  08:18        0.24
  C32-010              JUNCTION     0.18     0.22   693.07     1  08:14        0.22
  C32-011              JUNCTION     0.13     0.15   696.31     1  08:11        0.15
  C32-012              JUNCTION     0.20     0.24   697.34     0  08:10        0.24
  C32-013              JUNCTION     0.19     0.24   698.00     0  08:08        0.24
  C32-015              JUNCTION     0.19     0.24   699.04     0  08:07        0.24
  C32-016              JUNCTION     0.19     0.24   700.16     0  08:05        0.24
  C33-001              JUNCTION     0.20     0.25   681.53     0  09:06        0.25
  C33-001A             JUNCTION     0.57     0.68   681.94     0  09:06        0.68
  C33-001B             JUNCTION     0.36     0.44   682.19     0  09:02        0.44
  C33-002              JUNCTION     0.47     0.57   682.49     1  08:53        0.57
  C33-014              JUNCTION     0.14     0.17   689.86     1  08:54        0.17
  C33-015              JUNCTION     0.17     0.22   691.79     1  08:50        0.22
  C33-017              JUNCTION     0.17     0.21   693.57     1  08:50        0.21
  C33-018              JUNCTION     0.17     0.21   695.28     1  08:46        0.21
  C33-018A             JUNCTION     0.69     0.75   693.61     1  08:49        0.75
  C33-019              JUNCTION     0.24     0.29   696.45     1  08:39        0.29
  C33-021              JUNCTION     0.21     0.26   697.54     1  08:35        0.26
  C33-021A             JUNCTION     0.18     0.23   698.74     0  09:01        0.23
  C33-057              JUNCTION     0.23     0.29   698.32     1  08:24        0.29
  C34-001              JUNCTION     1.75     2.01   699.01     0  00:42        1.84
  C34-001A             JUNCTION     0.09     0.11   700.09     1  09:00        0.11
  C34-001B             JUNCTION     0.47     0.52   700.20     0  09:00        0.52
  C34-002              JUNCTION     0.14     0.16   706.69     1  08:30        0.16
  C34-005              JUNCTION     0.22     0.26   708.26     0  08:25        0.26
  C34-006              JUNCTION     0.22     0.27   708.69     0  08:12        0.27
  C34-007              JUNCTION     0.22     0.27   709.07     0  08:21        0.27
  C34-008              JUNCTION     0.21     0.26   709.64     0  08:59        0.26
  C34-010              JUNCTION     0.22     0.27   709.85     1  08:57        0.27
  C34-013              JUNCTION     0.16     0.20   713.11     1  08:57        0.20
  C34-023              JUNCTION     0.15     0.18   717.90     0  08:47        0.18
  C35-001              JUNCTION     0.55     0.67   674.22     0  01:20        0.61
  C35-014              JUNCTION     0.15     0.18   675.77     0  09:08        0.18
  C35-015              JUNCTION     0.36     0.43   676.08     0  09:06        0.43
  C35-016              JUNCTION     0.19     0.23   676.85     1  08:50        0.23
  C35-017              JUNCTION     0.13     0.15   677.73     1  08:47        0.15
  C35-018              JUNCTION     0.21     0.25   678.16     1  08:46        0.25
  C35-019              JUNCTION     0.29     0.36   678.38     1  08:44        0.36
  C35-033              JUNCTION     0.18     0.22   679.46     1  08:36        0.22
  C35-038              JUNCTION     0.17     0.20   680.82     1  08:32        0.20
  C35-045              JUNCTION     0.27     0.32   681.49     0  08:24        0.32
  C35-047              JUNCTION     0.18     0.22   682.62     1  08:18        0.22
  C35-050              JUNCTION     0.26     0.31   683.04     0  08:11        0.31
  C35-WETWELL          JUNCTION     3.50     4.00   674.19     0  01:20        3.89
  C36-040              JUNCTION     0.20     0.25   657.28     1  09:07        0.25
  C36-041              JUNCTION     0.19     0.24   665.62     0  09:08        0.24
  C36-042              JUNCTION     0.21     0.26   672.74     0  09:07        0.26
  C39-031              JUNCTION     0.22     0.27   673.52     0  08:04        0.27
  C39-034              JUNCTION     0.17     0.21   672.67     0  08:10        0.21
  C39-035              JUNCTION     0.61     0.66   672.42     0  08:13        0.66
  C40-001              JUNCTION     0.14     0.17   653.88     1  08:50        0.17
  C40-002              JUNCTION     0.20     0.24   654.46     1  08:44        0.24
  C40-002A             JUNCTION     0.13     0.16   655.32     0  09:03        0.16
  C40-003              JUNCTION     0.13     0.16   656.82     0  09:02        0.16
  C40-011              JUNCTION     0.19     0.23   657.44     0  09:02        0.23
  C40-012              JUNCTION     0.16     0.20   657.97     0  09:01        0.20
  C40-012A             JUNCTION     0.15     0.18   658.92     0  08:56        0.18
  C40-015              JUNCTION     0.15     0.19   659.90     1  08:25        0.19
  C40-015A             JUNCTION     0.12     0.15   661.52     0  09:00        0.15
  C40-022              JUNCTION     0.19     0.23   662.07     0  09:00        0.23
  C40-027              JUNCTION     0.16     0.19   662.98     0  09:00        0.19
  C40-027A             JUNCTION     0.18     0.22   662.46     1  08:59        0.22
  C40-027B             JUNCTION     0.12     0.14   667.01     0  08:58        0.14
  C40-027C             JUNCTION     0.13     0.16   664.99     1  08:59        0.16
  C40-039              JUNCTION     0.16     0.20   667.87     1  08:59        0.20
  C40-040              JUNCTION     0.15     0.18   668.89     0  08:27        0.18
  C41-002              JUNCTION     0.12     0.15   701.24     1  08:37        0.15
  C41-002A             JUNCTION     1.61     1.94   701.64     0  00:56        1.73
  C41-003              JUNCTION     0.09     0.11   703.09     1  08:36        0.11
  C41-006              JUNCTION     0.80     0.91   703.31     1  08:35        0.91
  C41-007              JUNCTION     0.16     0.20   704.91     1  08:35        0.19
  C41-008              JUNCTION     0.13     0.16   709.15     1  08:33        0.16
  C41-009              JUNCTION     0.11     0.14   715.73     1  08:32        0.14
  C41-010              JUNCTION     0.19     0.23   717.18     1  08:30        0.23
  C41-011              JUNCTION     0.22     0.27   717.94     1  08:23        0.27
  C41-012              JUNCTION     0.20     0.24   718.80     1  08:26        0.24
  C41-013              JUNCTION     0.18     0.22   720.04     1  08:16        0.22
  C41-015              JUNCTION     0.19     0.23   721.06     0  08:09        0.23
  C42-001              JUNCTION     0.10     0.12   687.76     0  09:02        0.12
  C42-001A             JUNCTION     0.11     0.14   686.09     0  09:05        0.14
  C42-001B             JUNCTION     0.17     0.21   686.67     0  09:03        0.21
  C42-002              JUNCTION     0.44     0.48   687.82     0  09:01        0.48
  C42-007              JUNCTION     0.13     0.16   688.79     0  08:35        0.16
  C42-008              JUNCTION     0.11     0.14   689.35     0  08:25        0.14
  C42-008A             JUNCTION     0.13     0.15   690.80     0  08:07        0.15
  C42-008B             JUNCTION     0.17     0.21   689.96     0  08:20        0.21
  C42-045              JUNCTION     0.65     0.74   679.23     0  09:35        0.74
  C43-001              JUNCTION     0.19     0.23   662.50     1  09:08        0.23
  C43-001A             JUNCTION     6.64     6.96   656.96     0  22:09        6.96
  C43-001B             JUNCTION     0.27     0.33   664.56     1  08:28        0.33
  C45-015              JUNCTION     0.28     0.34   682.25     0  08:21        0.34
  C45-017              JUNCTION     0.21     0.26   681.90     0  08:26        0.26
  C45-018              JUNCTION     0.17     0.21   680.81     0  08:33        0.21
  C45-019              JUNCTION     0.21     0.26   679.72     0  08:37        0.25
  C45-020              JUNCTION     0.18     0.23   678.29     0  08:40        0.23
  C45-023              JUNCTION     0.18     0.23   677.48     0  08:43        0.23
  C45-025              JUNCTION     0.21     0.25   676.43     0  08:46        0.25
  C45-025A             JUNCTION     0.24     0.29   676.48     0  08:45        0.29
  C45-025B             JUNCTION     0.13     0.16   675.44     0  08:47        0.16
  C45-026              JUNCTION     0.13     0.16   688.26     0  08:29        0.16
  C45-026A             JUNCTION     0.21     0.26   683.72     0  08:11        0.26
  C45-027              JUNCTION     0.17     0.21   683.34     0  08:32        0.21
  C45-032              JUNCTION     0.11     0.13   681.27     0  08:19        0.13
  C45-033              JUNCTION     0.09     0.11   680.62     1  08:29        0.11
  C45-039              JUNCTION     0.10     0.12   681.60     1  08:18        0.12
  C45-040              JUNCTION     0.09     0.11   682.08     1  08:15        0.11
  C45-044              JUNCTION     0.10     0.12   682.94     0  08:06        0.12
  C45-059              JUNCTION     3.05     3.17   688.36     0  19:00        3.13
  C45-060              JUNCTION     3.25     3.40   688.38     1  19:00        3.33
  C45-061              JUNCTION     2.12     2.26   688.39     1  19:00        2.19
  C46-001              JUNCTION     0.12     0.14   682.13     1  08:06        0.14
  C46-002              JUNCTION     0.12     0.14   680.89     1  08:21        0.14
  C46-003              JUNCTION     0.20     0.24   679.80     0  08:36        0.24
  C46-004              JUNCTION     0.11     0.13   679.41     0  08:48        0.13
  C46-005              JUNCTION     0.23     0.28   678.11     0  09:03        0.28
  C46-006              JUNCTION     0.09     0.11   677.85     0  09:05        0.11
  C49-019              JUNCTION     0.17     0.20   690.45     1  08:51        0.20
  C49-019B             JUNCTION     0.21     0.25   690.01     1  08:57        0.25
  C49-020              JUNCTION     0.16     0.20   694.85     0  08:50        0.20
  C49-021              JUNCTION     0.26     0.32   695.60     1  08:52        0.32
  C49-022              JUNCTION     0.25     0.31   696.32     0  08:06        0.31
  C49-024              JUNCTION     0.24     0.29   696.78     0  08:58        0.29
  C49-024A             JUNCTION     0.29     0.35   696.49     1  08:08        0.35
  C49-033              JUNCTION     0.25     0.31   697.10     1  08:01        0.31
  C51-104              JUNCTION     0.29     0.36   677.20     0  09:29        0.36
  C51-105              JUNCTION     0.22     0.27   675.90     0  09:31        0.27
  C51-106              JUNCTION     0.28     0.34   673.73     0  09:33        0.34
  C51-107              JUNCTION     0.29     0.36   672.86     0  09:36        0.36
  C51-108              JUNCTION     0.80     0.90   672.50     0  09:47        0.90
  C51-109              JUNCTION     1.42     1.53   672.49     0  09:48        1.53
  C51-110              JUNCTION     0.26     0.45   670.67     1  22:52        0.45
  C51-119              JUNCTION     0.16     0.20   672.35     0  09:49        0.20
  C51-120              JUNCTION     0.84     0.93   672.49     0  09:48        0.93
  C51-121              JUNCTION     0.39     0.48   677.56     0  09:26        0.48
  C52-068              JUNCTION     0.35     0.56   671.24     1  22:49        0.56
  C52-069              JUNCTION     0.21     0.25   672.11     0  08:53        0.25
  C52-070              JUNCTION     0.29     0.35   672.73     0  08:52        0.35
  C52-075              JUNCTION     0.23     0.28   674.01     0  08:50        0.28
  C52-080              JUNCTION     0.29     0.36   674.84     1  08:37        0.36
  C52-081              JUNCTION     0.26     0.32   675.40     1  08:36        0.32
  C52-082              JUNCTION     0.22     0.28   676.31     1  08:35        0.28
  C52-098              JUNCTION     0.24     0.30   677.28     1  08:35        0.30
  C52-099              JUNCTION     0.00     0.00   688.74     0  00:00        0.00
  C52-099A             JUNCTION     0.00     0.00   692.94     0  00:00        0.00
  C52-100              JUNCTION     0.00     0.00   690.37     0  00:00        0.00
  C52-121              JUNCTION     0.00     0.00   692.44     0  00:00        0.00
  C53-001A             JUNCTION     0.36     0.44   682.78     0  09:00        0.44
  C53-044              JUNCTION     0.35     0.42   687.33     0  09:00        0.42
  C53-045              JUNCTION     0.22     0.26   686.50     0  09:00        0.26
  C53-046              JUNCTION     0.35     0.43   683.27     0  09:00        0.43
  C54-020              JUNCTION     0.15     0.18   678.95     0  08:34        0.18
  C54-021              JUNCTION     0.28     0.32   678.90     0  09:00        0.32
  C54-021A             JUNCTION     0.09     0.10   678.83     0  09:00        0.10
  C54-022              JUNCTION     0.55     0.58   677.89     0  09:00        0.58
  C54-024              JUNCTION     0.60     0.63   677.89     0  09:00        0.63
  C54-025              JUNCTION     0.10     0.12   677.88     0  09:00        0.12
  C54-026              JUNCTION     0.36     0.40   677.18     0  09:00        0.40
  C54-028              JUNCTION     0.13     0.16   677.15     0  09:01        0.16
  C54-029              JUNCTION     0.00     0.00   686.01     0  00:00        0.00
  C54-030              JUNCTION     0.00     0.00   688.90     0  00:00        0.00
  C54-030A             JUNCTION     0.00     0.00   693.46     0  00:00        0.00
  C54-033              JUNCTION     0.11     0.14   676.89     0  09:01        0.14
  C54-034              JUNCTION     0.07     0.09   676.72     0  09:02        0.09
  C54-036              JUNCTION     0.60     0.64   676.15     0  09:02        0.64
  C54-037              JUNCTION     0.36     0.40   676.15     0  09:03        0.40
  C54-038              JUNCTION     0.11     0.14   676.13     0  09:03        0.14
  C54-039              JUNCTION     0.11     0.14   675.92     0  09:04        0.14
  C54-040              JUNCTION     0.12     0.14   675.61     0  09:05        0.14
  C54-044              JUNCTION     0.12     0.15   675.03     0  09:05        0.15
  C54-045              JUNCTION     0.11     0.14   674.38     0  09:07        0.14
  C54-046              JUNCTION     0.12     0.15   673.71     0  09:08        0.15
  C54-047              JUNCTION     0.11     0.13   673.07     0  09:10        0.13
  C55-001              JUNCTION     0.32     0.39   683.01     0  09:24        0.39
  C55-002              JUNCTION     0.27     0.33   683.50     0  09:19        0.33
  C55-003              JUNCTION     0.29     0.36   684.29     0  09:12        0.36
  C55-003A             JUNCTION     0.27     0.33   684.09     0  09:15        0.33
  C55-004              JUNCTION     0.24     0.30   684.53     0  09:09        0.30
  C55-021              JUNCTION     0.24     0.29   683.02     0  09:25        0.29
  C55-021A             JUNCTION     0.31     0.38   683.71     0  09:12        0.38
  C55-022              JUNCTION     0.14     0.17   683.38     1  09:11        0.17
  C55-023              JUNCTION     0.14     0.17   683.86     0  08:55        0.17
  C55-024              JUNCTION     0.14     0.17   684.34     1  08:48        0.17
  C55-025              JUNCTION     0.14     0.17   684.77     0  09:10        0.17
  C55-033              JUNCTION     0.39     0.50   698.89     0  08:02        0.49
  C55-034              JUNCTION     0.38     0.47   697.36     0  08:06        0.47
  C55-035              JUNCTION     0.38     0.47   695.90     1  08:08        0.47
  C55-035A             JUNCTION     0.50     0.74   695.11     0  09:04        0.72
  C55-035B             JUNCTION     0.39     0.51   695.27     0  09:03        0.50
[...]
  W26-057.1               1.00   0.01  0.00  0.00  0.99  0.00  0.00  0.00  0.04  0.00
  WESTHIGHLANDS.1        51.45   0.03  0.09  0.00  0.00  0.00  0.88  0.00  0.00  0.00
  
  
  *************************
  Conduit Surcharge Summary
  *************************
  
  ----------------------------------------------------------------------------
                                                           Hours        Hours 
                         --------- Hours Full --------   Above Full   Capacity
  Conduit                Both Ends  Upstream  Dnstream   Normal Flow   Limited
  ----------------------------------------------------------------------------
  BYPASSTOSOCSTORAGE.1        0.01      0.01      0.01      0.01         0.01
  C01-001B.1                  0.01      0.01     31.50      0.01         0.01
  C05-008.1                  40.15     40.15     42.09      0.01         0.01
  C05-008A.1                  0.01      0.01     40.09      0.01         0.01
  C05-009.1                   0.01      0.01     42.09      0.01         0.01
  C07-068.1                   0.01      0.01     33.42      0.01         0.01
  C07-069.1                   0.01      0.01     33.42      0.01         0.01
  C08-092.1                   0.01      8.32      0.01     20.83         0.01
  C10-001.1                   0.01      0.01     36.44      0.01         0.01
  C10-001A.1                  0.01      0.01     36.44      0.01         0.01
  C10-002.1                  47.10     47.10     47.10      0.01         0.01
  C11-001A.1                 47.12     47.12     47.13      0.01         0.01
  C20-044A.1                 33.69     33.69     47.13      0.01         0.01
  C20-051.1                  47.63     47.63     47.63     42.09        41.95
  C20-051B.1                  0.01      0.01     46.07      0.01         0.01
  C24-006.1                   0.01      0.01     36.07      0.01         0.01
  C24-039.1                   0.01      0.01     37.76      0.01         0.01
  C25-001.1                   0.01      0.01     47.12      0.01         0.01
  C25-001A.1                  0.01      0.01     47.11      0.01         0.01
  C25-036.1                   0.01      0.01      5.81      0.01         0.01
  C25-036A.1                  0.01      0.01      5.81      0.01         0.01
  C26-035.1                   0.01      0.01     47.45      0.01         0.01
  C26-035A.1                  0.01      0.01     38.27      0.01         0.01
  C28-012.1                   0.01      0.01     35.68      0.01         0.01
  C28-013.1                   0.01      0.01     35.68      0.01         0.01
  C30-003B.1                 46.67     46.67     46.67     32.62        24.00
  C30-003B.2                 46.67     46.67     46.67     33.89        23.97
  C30-006A.1                  0.01      0.01     47.50      0.01         0.01
  C30-016.1                   0.01      0.01     34.66      0.01         0.01
  C30-017.1                   0.01      0.01     34.66      0.01         0.01
  C34-001.1                   0.01      0.01     47.30      0.01         0.01
  C34-001A.1                  0.01      0.01     47.30      0.01         0.01
  C41-002A.1                  0.01      0.01     47.06      0.01         0.01
  C41-003.1                   0.01      0.01     47.06      0.01         0.01
  C41-006.1                   0.01      0.01     35.60      0.01         0.01
  C41-007.1                   0.01      0.01     35.60      0.01         0.01
  C43-001A.1                 47.25     47.25     47.25     38.90        38.90
  C43-001A.2                 47.18     47.18     47.18     38.68        38.89
  C45-025B.1                  0.01      0.01     34.93      0.01         0.01
  C45-059.1                   0.01      0.01     47.41      0.01         0.01
  C45-060.1                  47.57     47.57     47.61      0.01         0.01
  C45-061.1                  47.46     47.46     47.61      0.01         0.01
  C51-110.1                   0.01      0.01     45.34      0.01         0.01
  C52-068.1                   0.01      0.01     32.27      0.01         0.01
  C55-035A.1                  0.01      0.01      2.11      0.01         0.01
  C55-036.1                   2.11      2.11     15.46      0.01         0.01
  C55-036A.1                  7.33      7.46      7.33      7.84         5.19
  C55-036B.1                  7.45      7.45     15.46      0.01         0.01
  C55-037.1                   8.64      8.64     16.54      0.01         0.01
  C55-039.1                  16.46     16.54     17.48     19.07        16.46
  C55-040.1                  17.03     17.48     18.22     19.52        17.03
  C55-041.1                   0.01     18.22      0.01     20.22         0.01
  CENTURYHILLSPS_DS.2         0.01      0.01     47.30      0.01         0.01
  COUNTRYLAKESPS.1            0.01      0.01     47.63      0.01         0.01
  GARTNERDUMMY1.1            46.67     46.67     46.67     34.65        24.58
  GARTNERDUMMY2.1            46.67     46.67     46.67     33.75        25.60
  GARTNERDUMMY3.1            46.67     46.67     46.67     34.65        23.34
  GARTNERDUMMY4.1            46.67     46.67     46.67     33.22        24.40
  N01-008.1                   0.01      0.01     47.29      0.01         0.01
  N01-009.1                   0.01      0.01     47.29      0.01         0.01
  N15-161.1                   0.01      0.01     47.71      0.01         0.01
  N15-162A.1                  0.01      0.01     47.72      0.01         0.01
  N16-140.1                   0.01      0.01     36.39      0.01         0.01
  N16-154.1                  36.39     36.39     46.01      0.01         0.01
  N16-155.1                   0.01      0.01     45.63      0.01         0.01
  N18-034A.1                  0.01      0.01     47.64      0.01         0.01
  N18-034C.1                 45.00     45.00     47.71      0.01         0.01
  N18-034D.1                  0.01      0.01     47.08      0.01         0.01
  N20-012.1                   0.01      0.01      5.16      0.01         0.01
  N20-021A.1                  0.01      0.01     17.53      0.01         0.01
  N20-022.1                   0.01      0.01     17.53      0.01         0.01
  N23-016A.1                  0.01      0.01     45.30      0.01         0.01
  N24-001.1                   0.01      0.01     45.57      0.01         0.01
  N24-002.1                   0.01      0.01     45.61      0.01         0.01
  N24-050.1                  45.30     45.30     45.54      0.01         0.01
  N25-001.1                   0.01      0.01     47.15      0.01         0.01
  N25-004.1                   0.01      0.01     33.67      0.01         0.01
  N25-028.1                  46.95     46.95     47.13      0.01         0.01
  N25-028A.1                  0.01      0.01     46.95      0.01         0.01
  N28-063.1                   0.01      0.01     46.73      0.01         0.01
  NOC_PS.1                    0.01      0.01     39.53      0.01         0.01
  NORTHWESTPS.1               5.53      5.53     43.51      0.01         0.01
  RIVERMISTPS.1               0.01      0.01     47.06      0.01         0.01
  RIVERWOODSPS.1              0.01      0.01     38.75      0.01         0.01
  S01-001.1                   0.01      0.01     47.32      0.01         0.01
  S01-002.1                   0.01      0.01     33.10      0.01         0.01
  S01-003.1                   0.01      0.01     33.10      0.01         0.01
  S01-014.1                   0.01      0.01     45.08      0.01         0.01
  S01-015.1                   0.01      0.01     45.43      0.01         0.01
  S03-001.1                   0.01      0.01     30.37      0.01         0.01
  S13-101.1                   0.01      0.01     47.81      0.01         0.01
  S13-102.1                   0.01      0.01     47.81      0.01         0.01
  S16-069.1                   0.01      0.01     24.00      0.01         0.01
  S16-069A.1                  0.01      0.01     24.00      0.01         0.01
  S17-001A.1                  0.01      0.01      8.91      0.01         0.01
  S22-001C.1                  0.01      0.01     29.95      0.01         0.01
  S23-001.1                   0.01      0.01     31.99      0.01         0.01
  S24-002.1                   0.01      0.01     47.95      0.01         0.01
  S24-092.1                   0.01      0.01     34.56      0.01         0.01
  S29-047.1                   0.01      0.01     34.63      0.01         0.01
  S29-102.1                   0.01      0.01     33.25      0.01         0.01
  S31-010.1                   0.01      0.01     35.72      0.01         0.01
  S31-018.1                   0.01      0.01      0.01     37.62         0.01
  S31-027.1                   0.01      0.01      0.01      0.01         0.01
  S38-009.1                   0.01      0.01     25.85      0.01         0.01
  S38-015C.1                  0.01      0.01     33.39      0.01         0.01
  S39-062.1                   0.01      0.01     29.40      0.01         0.01
  S40-048.1                   0.01      0.01     47.17      0.01         0.01
  S41-092.1                   0.01      0.01     26.37      0.01         0.01
  S43-055.1                  39.31     39.31     45.90      0.01         0.01
  S43-056.1                   0.01      0.01     39.31      0.01         0.01
  S43-094.1                   0.01      0.01     47.75      0.01         0.01
  S43-096.1                  47.76     47.76     47.79      0.01         0.01
  S47-068.1                   0.01      0.01     46.84      0.01         0.01
  S47-070.1                   0.01      0.01     46.84      0.01         0.01
  S47-076.1                   0.01      0.01     46.88      0.01         0.01
  S51-123.1                   0.01      0.01     44.65      0.01         0.01
  S51-124.1                   0.01      0.01     43.93      0.01         0.01
  S56-044.1                   0.01      0.01     40.89      0.01         0.01
  S56-046.1                   0.01      0.01     44.38      0.01         0.01
  S56-047.1                   0.01      0.01     44.97      0.01         0.01
  S56-050.1                   0.01      0.01     44.97      0.01         0.01
  S56-069.1                   0.01      0.01     40.89      0.01         0.01
  S57-069.1                   0.01      0.01     47.54      0.01         0.01
  S57-080.1                   0.01      0.01     47.53      0.01         0.01
  S63-002.1                   0.01      0.01      0.01     38.02         0.01
  S63-004.1                   0.01      0.01      0.01      9.94         0.01
  SOC_PS.1                   29.62     42.86     31.12     16.20         2.58
  SOC_PS.2                   29.90     43.14     31.12     16.27         2.59
  SOUTHWESTPS.1               0.01      0.01     39.40      0.01         0.01
  SUMMERFIELDPS.1             0.01      0.01      0.01     37.23         0.01
  T01-039.1                   0.01      0.01      0.01     39.88         0.01
  T02-000.1                   0.01      0.01      0.01     30.11         0.01
  T02-012.1                   0.01      0.01      0.01     28.10         0.01
  T02-013.1                   0.01      0.01      0.01     28.86         0.01
  T02-014.1                   0.01      0.01      0.01     11.91         0.01
  T02-018.1                   0.01      0.01      0.01     24.61         0.01
  T02-018A.1                  0.01      0.01      0.01     26.05         0.01
  T03-013A.1                  0.01      0.01     45.22      0.01         0.01
  T03-014.1                   0.01      0.01     45.25      0.01         0.01
  T04-015.1                   0.01      0.01      0.01     37.88         0.01
  T04-022.1                   0.01      0.01     36.05      0.01         0.01
  T04-023.1                  32.85     32.85     36.05      0.01         0.01
  T04-024.1                  35.86     35.86     45.93      0.01         0.01
  T04-025.1                  35.50     35.50     35.86     19.52        16.99
  T04-026.1                  32.42     32.42     35.50      0.01         0.01
  T04-027.1                   1.60      1.60     32.42      0.01         0.01
  T04-028.1                   0.01      0.01      1.60      0.01         0.01
  T05-002.1                   0.01      0.01     45.38      0.01         0.01
  T05-003.1                  36.22     36.22     45.38      0.01         0.01
  T05-004.1                   0.01      0.01     36.22      0.01         0.01
  T05-005.1                   0.01      0.01     45.30      0.01         0.01
  T05-006.1                  26.02     26.02     45.30      0.01         0.01
  T05-007.1                   0.01      0.01     25.97      0.01         0.01
  T05-009.1                   0.01      0.01     26.24      0.01         0.01
  T05-010.1                   0.01      0.01     26.24      0.01         0.01
  T05-011.1                   0.01      0.01      0.01     30.78         0.01
  T06-001.1                   0.01      0.01      0.01      0.01         0.01
  T06-001.3                   0.01      0.01      0.01      0.01         0.01
  T06-001A.1                  0.01      0.02      0.01      0.01         0.01
  T06-012.1                  46.36     46.36     46.36     31.16         0.01
  T06-012.2                  46.14     46.14     46.14     35.89        36.10
  T06-012.3                  46.08     46.08     46.08     35.84        36.10
  T06-021.1                   0.01      0.01      0.01     32.98         0.01
  T06-031.1                   0.01      0.01      0.01     33.71         0.01
  T08-014.1                   0.01      0.01     45.29      0.01         0.01
  T11-001.1                   0.01      0.01      0.01      0.01         0.01
  T12-004.1                   0.01      0.01      0.01     30.49         0.01
  T13-003.1                   0.01      0.01     39.31      0.01         0.01
  T13-004.1                   0.01      0.01     39.40      0.01         0.01
  TO_NOC_STORAGE.2            0.01      0.01     39.51      0.01         0.01
  TO_SOC_STORAGE.1            0.01      0.01     39.04      0.01         0.01
  W02-017.1                  40.13     40.13     40.13      0.01         0.28
  W02-017.2                  40.32     40.32     40.32      0.01         0.28
  W06-010.1                   0.01      0.01     39.66      0.01         0.01
  W06-011.1                   0.01      0.01     41.11      0.01         0.01
  W08-009.1                   0.01      0.01      0.01     42.52         0.01
  W08-015A.1                  0.01      0.01      0.01     10.51         0.01
  W08-031.1                   0.01      0.01      0.01      0.01         0.01
  W10-012B.1                  0.01      0.01      0.01     35.57         0.01
  W12-149.1                   0.01      0.01      0.01     35.60         0.01
  W14-002.1                   0.01      0.01     46.08      0.01         0.01
  W15-004.1                   0.01      0.01     47.26      0.01         0.01
  W15-100.1                   0.01      0.01     46.28      0.01         0.01
  W15-101.1                   0.01      0.01     42.49      0.01         0.01
  W17-001.1                   0.01      0.01     43.21      0.01         0.01
  W18-046.1                   0.01      0.01     32.43      0.01         0.01
  W21-001.1                   0.01      0.01     38.79      0.01         0.01
  W21-002.1                  40.84     40.84     44.53      0.01         0.01
  W21-003.1                  40.29     40.29     40.84      0.01         0.01
  W21-008.1                  39.35     39.35     40.29      0.01         0.01
  W21-009.1                  38.94     38.94     39.35      0.01         0.01
  W21-010.1                   0.01      0.01     38.94      0.01         0.01
  WESTHIGHLANDS.1             0.01      0.01     46.33      0.01         0.01
  
  
  ***************
  Pumping Summary
  ***************
  
  ---------------------------------------------------------------------------------------------------------
                                                  Min       Avg       Max     Total     Power    % Time Off
                        Percent   Number of      Flow      Flow      Flow    Volume     Usage    Pump Curve
  Pump                 Utilized   Start-Ups       MGD       MGD       MGD  10^6 gal     Kw-hr    Low   High
  ---------------------------------------------------------------------------------------------------------
  C01-LS501.1              0.00           0      0.00      0.00      0.00     0.000      0.00    0.0    0.0
  C01-LS501.2             95.21           1      0.00      2.57      3.53     4.493    474.67    0.0   97.9
  C01-LS501.3              0.00           0      0.00      0.00      0.00     0.000      0.00    0.0    0.0
  C01-LS501.4              0.00           0      0.00      0.00      0.00     0.000      0.00    0.0    0.0
  C07-LS500.2             99.07           1      0.00      0.03      0.04     0.057      0.44    0.0  100.0
  C07-LS500.3              0.00           0      0.00      0.00      0.00     0.000      0.00    0.0    0.0
  C35-WETWELL.1           97.20           1      0.00      0.09      0.58     0.161      7.97    0.0  100.0
  C35-WETWELL.2            0.00           0      0.00      0.00      0.00     0.000      0.00    0.0    0.0
  CENTURYHILLSPS.1        99.71           1      0.00      0.06      0.09     0.112     10.08    0.0  100.0
  CENTURYHILLSPS.2         0.00           0      0.00      0.00      0.00     0.000      0.00    0.0    0.0
  N16-LS500.2             97.06           1      0.00      3.65      5.02     6.436    755.46    0.0   34.2
  N16-LS500.3              0.00           0      0.00      0.00      0.00     0.000      0.00    0.0    0.0
  N16-LS500.4              0.00           0      0.00      0.00      0.00     0.000      0.00    0.0    0.0
  S15-LS500.1              5.65         248      0.00      4.44     12.17     0.521    114.12    0.0    5.2
  S15-LS500.2             40.41        1895      0.00     11.15     14.40     8.731   1171.43    0.0   53.5
  S15-LS500.3              9.85         481      0.00      8.19     15.08     1.562    312.05    0.0   24.5
  S15-LS500.4              3.11         172      0.00      4.00      9.01     0.250     58.55    0.0    1.5
  S15-LS500.5              0.00           1      0.00      2.58      2.58     0.000      0.01    0.0    0.0
  S30-WETWELL.1            0.00           0      0.00      0.00      0.00     0.000      0.00    0.0    0.0
  S30-WETWELL.2            0.00           0      0.00      0.00      0.00     0.000      0.00    0.0    0.0
  S31-LS500.1             98.10           1      0.00      0.05      0.14     0.092      4.70    0.0  100.0
  S31-LS500.2              0.00           0      0.00      0.00      0.00     0.000      0.00    0.0    0.0
  S32-LS500.1             94.41           1      0.00      0.02      0.02     0.026      1.66    0.0  100.0
  S32-LS500.2              0.00           0      0.00      0.00      0.00     0.000      0.00    0.0    0.0
  S50-LS500.2             97.81           1      0.00      1.08      1.48     1.926    313.93    0.0  100.0
  S50-LS500.3              0.00           0      0.00      0.00      0.00     0.000      0.00    0.0    0.0
  S56-LS500.1             98.34           1      0.00      0.03      0.04     0.052      1.48    0.0  100.0
  S56-LS500.2              0.00           0      0.00      0.00      0.00     0.000      0.00    0.0    0.0
  SOC-FLYGTPUMP.1          0.00           0      0.00      0.00      0.00     0.000      0.00    0.0    0.0
  SOC-FLYGTPUMP.5          0.02           1      0.00      6.91      6.91     0.003      0.18    0.0  100.0
  W08-LS500.1              0.00           0      0.00      0.00      0.00     0.000      0.00    0.0    0.0
  W08-LS500.2             99.24           1      0.00      0.22      1.58     0.403     21.95    0.0  100.0
  

  Analysis begun on:  Tue Jun 23 21:21:28 2026
  Analysis ended on:  Tue Jun 23 21:22:05 2026
  Total elapsed time: 00:00:37