
  EPA STORM WATER MANAGEMENT MODEL - VERSION 5.2 (Build 5.2.4)
  ------------------------------------------------------------

      Myrtle Avenue  Clearwater  FL 
      Proposed System  Future Conditions 
      Myrtle Avenue  Clearwater  FL 
  
  ****************
  Analysis Options
  ****************
  Flow Units ............... CFS
  Process Models:
    Rainfall/Runoff ........ YES
    RDII ................... NO
    Snowmelt ............... NO
    Groundwater ............ NO
    Flow Routing ........... YES
    Ponding Allowed ........ NO
    Water Quality .......... NO
  Infiltration Method ...... HORTON
  Flow Routing Method ...... DYNWAVE
  Surcharge Method ......... EXTRAN
  Starting Date ............ 01/01/2001 00:00:00
  Ending Date .............. 01/01/2001 02:00:00
  Antecedent Dry Days ...... 0.0
  Report Time Step ......... 00:01:00
  Wet Time Step ............ 00:01:00
  Dry Time Step ............ 02:00:00
  Routing Time Step ........ 2.00 sec
  Variable Time Step ....... NO
  Maximum Trials ........... 8
  Number of Threads ........ 1
  Head Tolerance ........... 0.005000 ft
  
  
  **************************        Volume         Depth
  Runoff Quantity Continuity     acre-feet        inches
  **************************     ---------       -------
  Total Precipitation ......        21.995         0.500
  Evaporation Loss .........         0.000         0.000
  Infiltration Loss ........         2.331         0.053
  Surface Runoff ...........        16.041         0.365
  Final Storage ............         3.637         0.083
  Continuity Error (%) .....        -0.064
  
  
  **************************        Volume        Volume
  Flow Routing Continuity        acre-feet      10^6 gal
  **************************     ---------     ---------
  Dry Weather Inflow .......         0.000         0.000
  Wet Weather Inflow .......        16.039         5.226
  Groundwater Inflow .......         0.000         0.000
  RDII Inflow ..............         0.000         0.000
  External Inflow ..........         0.000         0.000
  External Outflow .........        11.251         3.666
  Flooding Loss ............         0.000         0.000
  Evaporation Loss .........         0.000         0.000
  Exfiltration Loss ........         0.000         0.000
  Initial Stored Volume ....        36.148        11.779
  Final Stored Volume ......        40.884        13.323
  Continuity Error (%) .....         0.097
  
  
  *************************
  Highest Continuity Errors
  *************************
  Node Frank4 (-11.49%)
  Node Jasmine1 (5.14%)
  Node Druid3 (3.43%)
  Node NGarden5 (3.25%)
  Node Chestnut9 (3.14%)
  
  
  ********************************
  Highest Flow Instability Indexes
  ********************************
  All links are stable.
  
  
  *********************************
  Most Frequent Nonconverging Nodes
  *********************************
  Convergence obtained at all time steps.
  
  
  *************************
  Routing Time Step Summary
  *************************
  Minimum Time Step           :     2.00 sec
  Average Time Step           :     2.00 sec
  Maximum Time Step           :     2.00 sec
  % of Time in Steady State   :     0.00
  Average Iterations per Step :     2.00
  % of Steps Not Converging   :     0.00
  
  
  ***************************
  Subcatchment Runoff Summary
  ***************************
  
  ------------------------------------------------------------------------------------------------------------------------------
                            Total      Total      Total      Total     Imperv       Perv      Total       Total     Peak  Runoff
                           Precip      Runon       Evap      Infil     Runoff     Runoff     Runoff      Runoff   Runoff   Coeff
  Subcatchment                 in         in         in         in         in         in         in    10^6 gal      CFS
  ------------------------------------------------------------------------------------------------------------------------------
  hBLTrail1                  0.50       0.00       0.00       0.00       0.42       0.00       0.42        0.03     2.40   0.846
  hBLTrail4                  0.50       0.00       0.00       0.00       0.42       0.00       0.42        0.05     3.99   0.840
  hBLTrail5                  0.50       0.00       0.00       0.00       0.41       0.00       0.41        0.16    13.04   0.824
  hDrew2                     0.50       0.00       0.00       0.00       0.42       0.00       0.42        0.03     2.19   0.840
  hDrew3                     0.50       0.00       0.00       0.00       0.42       0.00       0.42        0.03     2.86   0.840
  hDrew4                     0.50       0.00       0.00       0.00       0.42       0.00       0.42        0.04     3.12   0.841
  hDrew5                     0.50       0.00       0.00       0.00       0.42       0.00       0.42        0.03     3.06   0.842
  hDrew6                     0.50       0.00       0.00       0.00       0.42       0.00       0.42        0.02     1.58   0.847
  hHart1                     0.50       0.00       0.00       0.17       0.28       0.00       0.28        0.11     8.92   0.552
  hHart4                     0.50       0.00       0.00       0.00       0.42       0.00       0.42        0.02     1.33   0.848
  hJones2                    0.50       0.00       0.00       0.00       0.43       0.00       0.43        0.01     0.66   0.851
  hJones3                    0.50       0.00       0.00       0.00       0.42       0.00       0.42        0.02     1.49   0.846
  hJones5                    0.50       0.00       0.00       0.00       0.42       0.00       0.42        0.08     6.58   0.834
  hJones7                    0.50       0.00       0.00       0.00       0.42       0.00       0.42        0.02     1.48   0.842
  hNGarden4                  0.50       0.00       0.00       0.00       0.40       0.00       0.40        0.04     3.15   0.809
  hNGarden6                  0.50       0.00       0.00       0.00       0.42       0.00       0.42        0.03     2.52   0.837
  hNGarden7                  0.50       0.00       0.00       0.00       0.42       0.00       0.42        0.03     2.30   0.835
  hNMyrtle1A                 0.50       0.00       0.00       0.00       0.26       0.00       0.26        0.08     7.29   0.527
  hNMyrtle2                  0.50       0.00       0.00       0.00       0.41       0.00       0.41        0.04     3.70   0.828
  hNMyrtle4                  0.50       0.00       0.00       0.00       0.25       0.00       0.25        0.05     3.82   0.499
  hNMyrtle5                  0.50       0.00       0.00       0.16       0.29       0.00       0.29        0.08     6.52   0.574
  hNMyrtle7                  0.50       0.00       0.00       0.09       0.34       0.00       0.34        0.03     2.87   0.685
  hNMyrtle8                  0.50       0.00       0.00       0.00       0.27       0.00       0.27        0.02     2.76   0.543
  hNOsceola1                 0.50       0.00       0.00       0.00       0.42       0.00       0.42        0.02     1.94   0.840
  hCleland2                  0.50       0.00       0.00       0.00       0.42       0.00       0.42        0.01     1.01   0.847
  hProspect3                 0.50       0.00       0.00       0.00       0.41       0.00       0.41        0.04     3.36   0.824
  hProspect1A                0.50       0.00       0.00       0.00       0.43       0.00       0.43        0.01     0.63   0.851
  hProspect1B                0.50       0.00       0.00       0.00       0.42       0.00       0.42        0.02     2.02   0.847
  hProspect1C                0.50       0.00       0.00       0.00       0.42       0.00       0.42        0.03     3.01   0.844
  hTownPond                  0.50       0.00       0.00       0.00       0.41       0.00       0.41        0.06     5.33   0.830
  hCleland1                  0.50       0.00       0.00       0.00       0.42       0.00       0.42        0.05     4.27   0.845
  hPierce5                   0.50       0.00       0.00       0.00       0.42       0.00       0.42        0.07     5.71   0.838
  hGrnwood4                  0.50       0.00       0.00       0.00       0.42       0.00       0.42        0.03     2.62   0.843
  hGrnwood2                  0.50       0.00       0.00       0.00       0.42       0.00       0.42        0.04     3.33   0.841
  hPierce7                   0.50       0.00       0.00       0.00       0.42       0.00       0.42        0.03     2.48   0.850
  hPierce6                   0.50       0.00       0.00       0.00       0.42       0.00       0.42        0.10     8.51   0.834
  hGrnwood5                  0.50       0.00       0.00       0.10       0.32       0.00       0.32        0.15    11.13   0.637
  hWashing2                  0.50       0.00       0.00       0.00       0.39       0.00       0.39        0.09     6.38   0.780
  hWashing1                  0.50       0.00       0.00       0.00       0.42       0.00       0.42        0.05     4.32   0.837
  hPierce9                   0.50       0.00       0.00       0.00       0.41       0.00       0.41        0.13    10.66   0.824
  hPierce10                  0.50       0.00       0.00       0.00       0.41       0.00       0.41        0.19    15.45   0.824
  hNGarden3                  0.50       0.00       0.00       0.00       0.42       0.00       0.42        0.04     3.67   0.844
  hTurner6                   0.50       0.00       0.00       0.11       0.24       0.01       0.25        0.10     8.55   0.503
  hPierce26                  0.50       0.00       0.00       0.00       0.43       0.00       0.43        0.03     2.83   0.850
  hPierce20                  0.50       0.00       0.00       0.00       0.43       0.00       0.43        0.04     3.21   0.851
  hCourt1                    0.50       0.00       0.00       0.01       0.41       0.00       0.41        0.05     4.74   0.822
  hNMyrtle1B                 0.50       0.00       0.00       0.00       0.42       0.00       0.42        0.08     7.05   0.846
  hChestnut1                 0.50       0.00       0.00       0.11       0.33       0.00       0.33        0.04     3.20   0.652
  hPond1A                    0.50       0.00       0.00       0.00       0.43       0.00       0.43        0.05     4.03   0.850
  hPond1B                    0.50       0.00       0.00       0.00       0.43       0.00       0.43        0.05     3.98   0.850
  hTurner1                   0.50       0.00       0.00       0.15       0.30       0.00       0.30        0.11     9.24   0.590
  hGrancen1                  0.50       0.00       0.00       0.14       0.31       0.00       0.31        0.06     4.97   0.612
  hTuska1                    0.50       0.00       0.00       0.15       0.30       0.00       0.30        0.03     2.98   0.594
  hSMyrtle1                  0.50       0.00       0.00       0.16       0.29       0.00       0.29        0.03     2.99   0.572
  hMagnolia1                 0.50       0.00       0.00       0.10       0.33       0.00       0.33        0.04     3.77   0.667
  hLotus1                    0.50       0.00       0.00       0.15       0.29       0.00       0.29        0.11     9.22   0.573
  hSMyrtle4                  0.50       0.00       0.00       0.12       0.33       0.00       0.33        0.07     6.28   0.653
  hJasmine2                  0.50       0.00       0.00       0.12       0.32       0.00       0.32        0.07     6.01   0.641
  hDruid1                    0.50       0.00       0.00       0.11       0.33       0.00       0.33        0.19    16.63   0.667
  hSMyrtle6                  0.50       0.00       0.00       0.14       0.31       0.00       0.31        0.10     8.66   0.611
  hProspect14                0.50       0.00       0.00       0.17       0.28       0.00       0.28        0.12    10.33   0.560
  hProspect13                0.50       0.00       0.00       0.17       0.28       0.00       0.28        0.08     6.55   0.553
  hSMyrtle10                 0.50       0.00       0.00       0.13       0.31       0.00       0.31        0.11     9.35   0.617
  hChestnut10                0.50       0.00       0.00       0.00       0.42       0.00       0.42        0.06     4.86   0.849
  hTurner5                   0.50       0.00       0.00       0.01       0.41       0.00       0.41        0.21    18.18   0.823
  hChestnut15                0.50       0.00       0.00       0.05       0.35       0.00       0.35        0.09     7.70   0.699
  hTurner6B                  0.50       0.00       0.00       0.07       0.32       0.00       0.32        0.04     3.24   0.633
  hPierce18                  0.50       0.00       0.00       0.00       0.42       0.00       0.42        0.09     8.25   0.847
  hCleland4                  0.50       0.00       0.00       0.00       0.42       0.00       0.42        0.06     5.27   0.841
  hAltUS19_2                 0.50       0.00       0.00       0.00       0.42       0.00       0.42        0.04     3.59   0.848
  hSGarden6                  0.50       0.00       0.00       0.00       0.42       0.00       0.42        0.09     7.56   0.843
  hSMyrtle21                 0.50       0.00       0.00       0.00       0.42       0.00       0.42        0.05     4.45   0.842
  hSMyrtle20                 0.50       0.00       0.00       0.00       0.41       0.00       0.41        0.06     5.15   0.829
  hSMyrtle16                 0.50       0.00       0.00       0.00       0.42       0.00       0.42        0.06     5.53   0.841
  hProspect7                 0.50       0.00       0.00       0.00       0.42       0.00       0.42        0.06     5.19   0.839
  hPierce13                  0.50       0.00       0.00       0.00       0.42       0.00       0.42        0.03     2.61   0.846
  hSMyrtle13                 0.50       0.00       0.00       0.03       0.40       0.00       0.40        0.09     8.17   0.792
  hSMyrtle15                 0.50       0.00       0.00       0.00       0.42       0.00       0.42        0.06     4.94   0.841
  hCourt14                   0.50       0.00       0.00       0.00       0.42       0.00       0.42        0.06     5.18   0.844
  hCourt8                    0.50       0.00       0.00       0.00       0.42       0.00       0.42        0.05     4.31   0.844
  hPierce15                  0.50       0.00       0.00       0.00       0.42       0.00       0.42        0.09     7.45   0.848
  hCourt11                   0.50       0.00       0.00       0.00       0.43       0.00       0.43        0.07     6.17   0.850
  hFrank3                    0.50       0.00       0.00       0.00       0.42       0.00       0.42        0.07     6.40   0.846
  hSGarden3                  0.50       0.00       0.00       0.00       0.42       0.00       0.42        0.09     7.77   0.840
  
  
  ******************
  Node Depth Summary
  ******************
  
  ---------------------------------------------------------------------------------
                                 Average  Maximum  Maximum  Time of Max    Reported
                                   Depth    Depth      HGL   Occurrence   Max Depth
  Node                 Type         Feet     Feet     Feet  days hr:min        Feet
  ---------------------------------------------------------------------------------
  Jones_OF             OUTFALL      5.10     5.10     3.00     0  00:00        5.10
  Outfall1             OUTFALL      5.10     5.10     3.00     0  00:00        5.10
  Outfall1b            OUTFALL      0.00     0.00     6.00     0  00:00        0.00
  Outfall2             OUTFALL      2.91     2.91     3.00     0  00:00        2.91
  Outfall3             OUTFALL      0.26     0.30     3.04     0  00:32        0.30
  Outfall4             OUTFALL      6.03     6.03     3.00     0  00:00        6.03
  Pinell_OF            OUTFALL      0.00     0.00    42.10     0  00:00        0.00
  BLTrail1             STORAGE      0.82     1.31    19.65     0  00:39        1.31
  BLTrail4             STORAGE      1.02     1.57    21.09     0  00:37        1.57
  BLTrail5             STORAGE      0.27     0.74    22.22     0  00:27        0.74
  Hart4                STORAGE      1.14     1.38    26.38     0  02:00        1.38
  Jones5               STORAGE      0.61     1.68    13.74     0  00:33        1.68
  NGarden6             STORAGE      0.22     0.65    21.70     0  00:30        0.65
  NMyrtle6             STORAGE      0.69     1.87    15.02     0  00:31        1.87
  Rogers1              STORAGE      0.29     0.43    19.18     0  00:44        0.43
  Druid5               STORAGE      0.12     0.12    19.29     0  00:00        0.12
  Jasmine3             STORAGE      3.06     3.54    23.80     0  02:00        3.54
  Magnolia1            STORAGE      0.21     0.49    27.23     0  00:31        0.49
  Pond2                STORAGE      0.30     0.39    18.28     0  00:50        0.39
  Prospect1w           STORAGE      0.32     0.87    16.42     0  00:36        0.86
  Pinellas1            STORAGE      0.00     0.00    45.30     0  00:00        0.00
  TownPondw            STORAGE      0.54     1.23    16.38     0  00:35        1.23
  TownPond             STORAGE     16.04    16.26    16.26     0  02:00       16.26
  Pond1                STORAGE      0.46     0.62    18.54     0  00:49        0.62
  Jasmine2             STORAGE      1.97     2.45    23.80     0  02:00        2.45
  Magnolia2            STORAGE      0.18     0.43    26.07     0  00:32        0.43
  Druid1               STORAGE      0.60     2.06    22.28     0  00:30        2.06
  SMyrtle7             STORAGE      0.97     2.68    16.77     0  00:31        2.68
  SMyrtle10            STORAGE      1.11     3.03    16.20     0  00:31        3.03
  SMyrtle13            STORAGE      0.57     1.40    17.50     0  00:30        1.40
  Pierce11             STORAGE      0.43     1.20    16.90     0  00:33        1.20
  BLTrail2             STORAGE      0.66     1.14    20.42     0  00:40        1.14
  BLTrail3             STORAGE      0.57     0.99    20.66     0  00:39        0.99
  Drew1                STORAGE      0.32     0.93    24.43     0  00:30        0.93
  Drew2                STORAGE      0.41     1.17    24.82     0  00:30        1.17
  Drew3                STORAGE      0.63     1.30    25.73     0  00:30        1.30
  Drew4                STORAGE      0.23     0.84    25.81     0  00:30        0.84
  Drew5                STORAGE      0.22     0.66    23.23     0  00:30        0.66
  Drew6                STORAGE      0.22     0.66    21.40     0  00:30        0.66
  Hart1                STORAGE      0.36     1.03    18.39     0  00:30        1.03
  Hart2                STORAGE      0.00     0.00    20.98     0  00:00        0.00
  Hart3                STORAGE      0.00     0.00    24.93     0  00:00        0.00
  Jones1               STORAGE      4.74     4.81     3.09     0  00:34        4.81
  Jones2               STORAGE      0.92     1.98     4.83     0  00:34        1.98
  Jones3               STORAGE      0.56     1.56    12.06     0  00:34        1.56
  Jones4               STORAGE      0.79     1.95    13.45     0  00:33        1.95
  Jones6               STORAGE      0.68     1.78    14.20     0  00:33        1.78
  Jones7               STORAGE      0.53     1.64    14.44     0  00:32        1.64
  NGarden4             STORAGE      0.42     1.07    22.45     0  00:32        1.07
  NGarden5             STORAGE      0.43     1.11    22.46     0  00:32        1.11
  NGarden7             STORAGE      0.21     0.58    21.01     0  00:30        0.58
  NMyrtle4             STORAGE      0.46     1.14    15.74     0  00:31        1.14
  NMyrtle5             STORAGE      0.21     0.69    15.03     0  00:31        0.69
  NMyrtle7             STORAGE      0.30     0.90    16.00     0  00:30        0.90
  NMyrtle8             STORAGE      0.48     1.35    17.44     0  00:30        1.35
  NOsceola1            STORAGE      0.42     1.26    22.95     0  00:30        1.26
  NOsceola2            STORAGE      0.36     1.10    22.30     0  00:30        1.10
  Cleland2             STORAGE      0.48     0.89    19.13     0  00:30        0.89
  Grnwood4             STORAGE      0.37     0.85    28.14     0  00:30        0.85
  Grnwood5             STORAGE      0.46     1.13    30.45     0  00:30        1.13
  Pierce9              STORAGE      0.60     1.72    30.17     0  00:30        1.72
  Washing1             STORAGE      1.14     1.69    31.10     0  00:30        1.69
  Washing2             STORAGE      0.47     1.10    31.55     0  00:30        1.10
  Chestnut11           STORAGE      0.24     0.79    21.32     0  00:30        0.79
  Court17              STORAGE      0.11     0.34    20.80     0  00:32        0.34
  Court2               STORAGE      0.36     1.09    23.02     0  00:30        1.09
  Court4               STORAGE      0.29     0.88    22.07     0  00:31        0.88
  Court5               STORAGE      0.97     2.37    15.61     0  00:32        2.37
  Druid2               STORAGE      0.63     2.03    22.01     0  00:30        2.03
  Druid6               STORAGE      0.00     0.00    18.50     0  00:00        0.00
  East1                STORAGE      0.51     1.57    19.60     0  00:31        1.57
  Jasmine1             STORAGE      0.77     1.08    23.80     0  02:00        1.08
  Lotus1               STORAGE      0.53     1.55    29.74     0  00:31        1.55
  Magnolia3            STORAGE      0.31     0.71    25.05     0  00:33        0.71
  Magnolia4            STORAGE      0.21     0.52    24.81     0  00:33        0.52
  Pierce18             STORAGE      1.28     2.54    16.16     0  00:30        2.54
  Pierce19             STORAGE      0.41     0.86    14.12     0  00:31        0.86
  Pierce20             STORAGE      4.54     4.89     3.42     0  00:30        4.89
  Pierce21             STORAGE      0.13     0.42    16.46     0  00:31        0.42
  Pierce22             STORAGE      0.14     0.43    22.17     0  00:30        0.43
  Pierce24             STORAGE      0.15     0.48    24.58     0  00:30        0.48
  Pierce25             STORAGE      0.16     0.50    26.20     0  00:30        0.50
  Pierce26             STORAGE      0.22     0.74    27.44     0  00:30        0.74
  NGarden3             STORAGE      0.49     1.46    22.37     0  00:30        1.46
  SGarden2             STORAGE      0.57     1.51    21.45     0  00:30        1.51
  SMyrtle11            STORAGE      0.97     3.07    15.94     0  00:32        3.07
  SMyrtle12            STORAGE      0.07     0.27    16.96     0  00:30        0.27
  SMyrtle3             STORAGE      0.68     1.89    37.69     0  00:33        1.88
  SMyrtle4             STORAGE      0.48     1.27    28.91     0  00:30        1.27
  SMyrtle5             STORAGE      0.52     1.38    21.54     0  00:30        1.38
  SMyrtle6             STORAGE      0.55     1.44    18.38     0  00:30        1.44
  SMyrtle8             STORAGE      0.97     2.62    16.62     0  00:31        2.62
  SMyrtle9             STORAGE      0.78     2.53    16.25     0  00:31        2.53
  Turner2              STORAGE      1.30     3.45    15.85     0  00:32        3.45
  Turner3              STORAGE      1.86     3.99    15.71     0  00:32        3.99
  Turner4              STORAGE      3.78     5.83    15.61     0  00:32        5.83
  Turner5              STORAGE      1.20     2.70    14.86     0  00:30        2.70
  Prospect4            STORAGE      0.25     0.76    17.46     0  00:30        0.76
  Chestnut14           STORAGE      0.39     1.18    22.03     0  00:30        1.18
  Chestnut15           STORAGE      0.31     0.94    24.48     0  00:30        0.94
  Chestnut6            STORAGE      0.03     0.05    20.85     0  01:05        0.05
  Court11              STORAGE      0.45     1.47    24.09     0  00:30        1.47
  Court6               STORAGE      0.88     2.37    15.28     0  00:33        2.36
  Frank1               STORAGE      0.66     2.05    15.83     0  00:31        2.05
  Frank4               STORAGE      1.20     2.00    17.21     0  00:31        2.00
  Pierce17             STORAGE      1.21     2.62    16.50     0  00:31        2.62
  SGarden3             STORAGE      0.68     1.62    21.38     0  00:30        1.62
  SGarden4             STORAGE      0.77     2.19    15.79     0  00:32        2.19
  NGarden1             STORAGE      0.67     1.56    21.51     0  00:33        1.56
  Turner1              STORAGE      1.26     2.85    16.10     0  00:32        2.84
  Turner6              STORAGE      0.93     2.05     9.44     0  00:31        2.05
  Prospect1            STORAGE      2.14     2.31    16.26     0  01:55        2.31
  Prospect2            STORAGE      0.94     1.09    16.26     0  01:55        1.09
  Prospect6            STORAGE      0.33     0.87    16.38     0  00:36        0.86
  Prospect9            STORAGE      0.52     1.28    16.31     0  00:36        1.28
  AltUS19_1            STORAGE      0.44     1.22    23.76     0  00:30        1.22
  AltUS19_2            STORAGE      0.38     1.26    24.15     0  00:30        1.26
  Chestnut2            STORAGE      0.18     0.52    20.62     0  00:30        0.52
  Chestnut3            STORAGE      0.22     0.62    18.81     0  00:30        0.62
  Chestnut4            STORAGE      0.00     0.00    19.07     0  00:00        0.00
  Frank2               STORAGE      0.51     1.77    15.86     0  00:31        1.77
  Frank3               STORAGE      0.29     0.92    16.33     0  00:30        0.92
  Pierce13             STORAGE      0.93     2.05    16.90     0  00:32        2.05
  Pierce16             STORAGE      1.11     2.52    16.58     0  00:32        2.52
  SGarden5             STORAGE      0.33     0.84    18.46     0  00:30        0.84
  SGarden7             STORAGE      0.87     1.92    20.19     0  00:30        1.92
  SGarden8             STORAGE      0.37     0.92    20.66     0  00:32        0.92
  SMyrtle22            STORAGE      0.74     1.68    16.78     0  00:33        1.68
  SMyrtle15a           STORAGE      0.00     0.00    17.78     0  00:00        0.00
  Pierce1              STORAGE      8.68     8.86    16.26     0  02:00        8.86
  Pierce2              STORAGE      2.21     2.39    16.26     0  01:55        2.39
  Pierce5              STORAGE      1.53     2.84    17.74     0  00:30        2.84
  Prospect8            STORAGE      0.47     1.20    16.33     0  00:34        1.18
  Ewing1               STORAGE      0.64     1.42    17.04     0  00:31        1.41
  Pierce4              STORAGE      2.63     3.44    17.04     0  00:31        3.44
  Chestnut5            STORAGE      0.00     0.00    18.73     0  00:00        0.00
  Prospect12           STORAGE      1.05     2.53    16.13     0  00:32        2.53
  SMyrtle14            STORAGE      0.61     1.55    17.45     0  00:30        1.55
  SMyrtle16            STORAGE      0.69     1.52    17.22     0  00:30        1.52
  Chestnut10           STORAGE      0.21     0.61    21.52     0  00:30        0.61
  Chestnut7            STORAGE      0.11     0.17    21.02     0  00:51        0.17
  Chestnut8            STORAGE      0.07     0.15    21.06     0  00:39        0.15
  Chestnut9            STORAGE      0.12     0.35    21.48     0  00:31        0.35
  Pond2i               STORAGE      0.25     0.56    17.64     0  00:00        0.33
  SMyrtle15            STORAGE      0.69     1.62    17.42     0  00:30        1.62
  SMyrtle17            STORAGE      0.76     1.59    17.19     0  00:30        1.59
  SMyrtle20            STORAGE      0.72     1.61    16.91     0  00:33        1.61
  Cleland1             STORAGE      0.80     1.61    21.56     0  00:30        1.61
  Grnwood1             STORAGE      0.71     1.78    24.58     0  00:31        1.78
  Grnwood2             STORAGE      0.33     0.80    25.79     0  00:30        0.80
  Grnwood3             STORAGE      0.43     1.00    26.95     0  00:30        1.00
  Pierce10             STORAGE      0.36     0.99    39.17     0  00:30        0.99
  Pierce6              STORAGE      1.12     3.15    21.15     0  00:30        3.14
  Pierce7              STORAGE      0.76     2.11    26.01     0  00:30        2.11
  Pierce8              STORAGE      0.70     2.14    27.58     0  00:31        2.14
  Prospect3            STORAGE      0.80     1.06    16.41     0  00:31        1.06
  Prospect5            STORAGE      0.23     0.73    17.71     0  00:30        0.73
  Prospect10           STORAGE      0.75     1.59    16.21     0  00:35        1.59
  Bay1                 STORAGE      0.00     0.00    28.11     0  00:00        0.00
  Chestnut1            STORAGE      0.14     0.40    31.69     0  00:30        0.40
  Chestnut12           STORAGE      0.37     1.03    21.49     0  00:31        1.03
  Chestnut13           STORAGE      0.48     1.25    21.62     0  00:30        1.25
  Cleland3             STORAGE      0.82     1.76    16.76     0  00:32        1.76
  Cleland4             STORAGE      0.30     0.90    26.32     0  00:30        0.90
  Court1               STORAGE      0.24     0.77    23.47     0  00:30        0.77
  Court10              STORAGE      0.28     0.67    12.93     0  00:34        0.67
  Court12              STORAGE      0.54     1.54    24.11     0  00:30        1.53
  Court13              STORAGE      0.61     1.62    24.11     0  00:30        1.62
  Court14              STORAGE      0.32     1.19    24.10     0  00:30        1.19
  Court15              STORAGE      0.47     1.57    23.71     0  00:30        1.57
  Court16              STORAGE      0.38     1.21    23.13     0  00:32        1.21
  Court3               STORAGE      0.30     0.96    22.32     0  00:31        0.96
  Court7               STORAGE      1.24     2.68    15.16     0  00:33        2.68
  Court8               STORAGE      1.05     2.37    15.00     0  00:33        2.37
  Court9               STORAGE      0.77     1.85    14.49     0  00:34        1.85
  Druid3               STORAGE      0.53     1.72    21.54     0  00:30        1.72
  Druid4               STORAGE      0.00     0.00    19.44     0  00:00        0.00
  Grancen1             STORAGE      0.37     1.30    38.89     0  00:30        1.30
  Jeffords1            STORAGE      0.35     1.56    37.69     0  00:33        1.56
  NMyrtle1             STORAGE      0.67     1.64    16.54     0  00:30        1.64
  Pierce12             STORAGE      0.45     1.32    16.92     0  00:33        1.32
  Pierce14             STORAGE      0.85     2.15    16.86     0  00:31        2.15
  Pierce15             STORAGE      1.07     2.39    16.83     0  00:31        2.39
  Pierce23             STORAGE      0.13     0.42    23.80     0  00:30        0.42
  Prospect11           STORAGE      0.96     2.22    16.15     0  00:31        2.22
  Prospect13           STORAGE      0.39     1.13    27.15     0  00:30        1.13
  Prospect14           STORAGE      0.37     1.10    29.59     0  00:30        1.10
  Prospect7            STORAGE      0.42     1.02    20.30     0  00:30        1.02
  SGarden1             STORAGE      0.45     1.23    21.55     0  00:31        1.23
  NGarden2             STORAGE      0.63     1.69    21.96     0  00:32        1.69
  SGarden6             STORAGE      0.67     1.74    20.13     0  00:30        1.74
  SMyrtle1             STORAGE      0.23     0.66    43.03     0  00:30        0.66
  SMyrtle18            STORAGE      0.56     1.44    16.92     0  00:32        1.44
  SMyrtle19            STORAGE      0.62     1.51    16.91     0  00:32        1.51
  SMyrtle2             STORAGE      0.54     1.37    38.71     0  00:30        1.37
  SMyrtle21            STORAGE      0.77     1.67    16.87     0  00:33        1.67
  Tuska1               STORAGE      0.34     1.08    44.86     0  00:30        1.08
  Frank5               STORAGE      0.00     0.00    17.95     0  00:00        0.00
  NMyrtle2             STORAGE      0.65     1.58    16.38     0  00:31        1.58
  NMyrtle3             STORAGE      0.49     1.30    16.00     0  00:31        1.30
  TP10                 STORAGE      9.17     9.36    16.26     0  02:00        9.36
  TP20                 STORAGE      0.61     1.70    19.40     0  00:30        1.70
  TP30                 STORAGE      0.43     1.13    21.53     0  00:32        1.13
  TP40                 STORAGE      0.68     1.73    22.48     0  00:31        1.73
  
  
  *******************
  Node Inflow Summary
  *******************
  
  -------------------------------------------------------------------------------------------------
                                  Maximum  Maximum                  Lateral       Total        Flow
                                  Lateral    Total  Time of Max      Inflow      Inflow     Balance
                                   Inflow   Inflow   Occurrence      Volume      Volume       Error
  Node                 Type           CFS      CFS  days hr:min    10^6 gal    10^6 gal     Percent
  -------------------------------------------------------------------------------------------------
  Jones_OF             OUTFALL       0.00    77.48     0  00:34           0         1.2       0.000
  Outfall1             OUTFALL       0.00    35.95     0  00:30           0       0.573       0.000
  Outfall1b            OUTFALL       0.00     0.00     0  00:00           0           0       0.000 gal
  Outfall2             OUTFALL       0.00    24.58     0  00:34           0       0.335       0.000
  Outfall3             OUTFALL       0.00     4.57     0  00:32           0      0.0508       0.000
  Outfall4             OUTFALL       0.00    98.53     0  00:31           0        1.51       0.000
  Pinell_OF            OUTFALL       0.00     0.00     0  00:00           0           0       0.000 gal
  BLTrail1             STORAGE       2.40     7.58     0  00:30      0.0274       0.202       0.800
  BLTrail4             STORAGE       3.99    17.15     0  00:30      0.0457       0.201       0.224
  BLTrail5             STORAGE      13.04    13.04     0  00:30       0.156       0.156       0.118
  Hart4                STORAGE       1.33     1.33     0  00:30      0.0152      0.0152      -0.000
  Jones5               STORAGE       6.58    65.03     0  00:32      0.0766        1.03       0.219
  NGarden6             STORAGE       2.52     2.53     0  00:30      0.0291      0.0292       0.026
  NMyrtle6             STORAGE       0.00    53.46     0  00:31           0       0.747       0.329
  Rogers1              STORAGE       0.00     8.22     0  00:30           0      0.0862       0.221
  Druid5               STORAGE       0.00     0.00     0  00:00           0     0.00714       0.000
  Jasmine3             STORAGE       0.00     6.14     0  00:30           0      0.0873       1.220
  Magnolia1            STORAGE       3.77     3.77     0  00:30      0.0438      0.0438       0.066
  Pond2                STORAGE       0.00     0.96     0  00:49           0      0.0369       0.349
  Prospect1w           STORAGE       0.00     3.92     0  00:33           0      0.0323       0.372
  Pinellas1            STORAGE       0.00     0.00     0  00:00           0           0       0.000 gal
  TownPondw            STORAGE       0.00     3.46     0  00:31           0      0.0202       1.537
  TownPond             STORAGE       7.35    83.37     0  00:30      0.0858        12.4       0.022
  Pond1                STORAGE       4.03     8.65     0  00:30      0.0462      0.0992      -0.001
  Jasmine2             STORAGE       6.01     7.31     0  00:30      0.0687       0.103       2.733
  Magnolia2            STORAGE       0.00     3.04     0  00:31           0      0.0407       0.302
  Druid1               STORAGE      16.63    16.63     0  00:30        0.19        0.19       0.190
  SMyrtle7             STORAGE       0.00    31.67     0  00:30           0       0.401       0.171
  SMyrtle10            STORAGE       0.00    38.11     0  00:30           0       0.503       0.102
  SMyrtle13            STORAGE       8.17     8.17     0  00:30      0.0932      0.0939       0.424
  Pierce11             STORAGE       0.00     4.40     0  00:31           0       0.042       0.237
  BLTrail2             STORAGE       0.00     7.02     0  00:38           0       0.176       0.323
  BLTrail3             STORAGE       0.00     7.04     0  00:37           0       0.178       0.164
  Drew1                STORAGE       0.00     8.05     0  00:30           0      0.0922      -0.360
  Drew2                STORAGE       2.19     8.10     0  00:30      0.0251      0.0926       0.047
  Drew3                STORAGE       2.86     5.95     0  00:30      0.0328      0.0694       0.864
  Drew4                STORAGE       3.12     3.12     0  00:30      0.0357      0.0357       0.021
  Drew5                STORAGE       3.06     3.06     0  00:30       0.035       0.035       0.029
  Drew6                STORAGE       1.58     4.63     0  00:30       0.018      0.0528       0.091
  Hart1                STORAGE       8.92     8.92     0  00:30       0.105       0.105       0.022
  Hart2                STORAGE       0.00     0.00     0  00:00           0           0       0.000 gal
  Hart3                STORAGE       0.00     0.00     0  00:00           0           0       0.000 gal
  Jones1               STORAGE       0.00    77.47     0  00:34           0        1.22       0.001
  Jones2               STORAGE       0.66    77.47     0  00:34     0.00751         1.2       0.069
  Jones3               STORAGE       1.49    77.84     0  00:33       0.017         1.2       0.482
  Jones4               STORAGE       0.00    68.67     0  00:32           0        1.08       0.939
  Jones6               STORAGE       0.00    60.83     0  00:32           0       0.957       0.202
  Jones7               STORAGE       1.48    54.15     0  00:31      0.0169        0.76       0.234
  NGarden4             STORAGE       3.15     3.15     0  00:30      0.0399      0.0449      -0.090
  NGarden5             STORAGE       0.00     0.77     0  00:30           0     0.00583       3.364
  NGarden7             STORAGE       2.30     4.80     0  00:30      0.0266      0.0556       0.083
  NMyrtle4             STORAGE       3.82    35.09     0  00:31      0.0483       0.514       0.299
  NMyrtle5             STORAGE       6.52    40.10     0  00:31      0.0762       0.588       0.088
  NMyrtle7             STORAGE       2.87    14.17     0  00:30      0.0327       0.159       0.132
  NMyrtle8             STORAGE       2.76    11.50     0  00:30      0.0226       0.127       0.139
  NOsceola1            STORAGE       1.94     9.94     0  00:30      0.0222       0.114      -0.061
  NOsceola2            STORAGE       0.00     9.87     0  00:30           0       0.114       0.013
  Cleland2             STORAGE       1.01     1.01     0  00:30      0.0115      0.0115       2.240
  Grnwood4             STORAGE       2.62    13.57     0  00:30        0.03       0.177       0.063
  Grnwood5             STORAGE      11.13    11.13     0  00:30       0.147       0.147       0.086
  Pierce9              STORAGE      10.66    36.02     0  00:30       0.128       0.443       0.154
  Washing1             STORAGE       4.32    10.36     0  00:30        0.05       0.139       1.835
  Washing2             STORAGE       6.38     6.38     0  00:30      0.0896      0.0896       0.247
  Chestnut11           STORAGE       0.00     4.71     0  00:30           0      0.0432      -0.057
  Court17              STORAGE       0.00     4.57     0  00:32           0      0.0509       0.011
  Court2               STORAGE       0.00     4.74     0  00:30           0       0.054      -0.124
  Court4               STORAGE       0.00     4.69     0  00:31           0      0.0533       0.092
  Court5               STORAGE       0.00    23.51     0  00:30           0       0.301       1.608
  Druid2               STORAGE       0.00    16.62     0  00:30           0       0.189      -0.388
  Druid6               STORAGE       0.00     0.00     0  00:00           0           0       0.000 gal
  East1                STORAGE       0.00    16.55     0  00:30           0       0.183      -1.928
  Jasmine1             STORAGE       0.00     2.99     0  00:33           0      0.0387       5.419
  Lotus1               STORAGE       9.22     9.22     0  00:30       0.109       0.109       0.021
  Magnolia3            STORAGE       0.00     3.03     0  00:32           0      0.0403      -0.164
  Magnolia4            STORAGE       0.00     2.99     0  00:33           0      0.0397       1.602
  Pierce18             STORAGE       8.25    31.75     0  00:30      0.0941       0.516       1.505
  Pierce19             STORAGE       0.00    33.53     0  00:31           0       0.537       0.075
  Pierce20             STORAGE       3.21    35.82     0  00:30      0.0367       0.587       0.001
  Pierce21             STORAGE       0.00     2.83     0  00:30           0      0.0319       0.006
  Pierce22             STORAGE       0.00     2.83     0  00:30           0      0.0321       0.072
  Pierce24             STORAGE       0.00     2.83     0  00:30           0      0.0323       0.069
  Pierce25             STORAGE       0.00     2.83     0  00:30           0      0.0323      -0.068
  Pierce26             STORAGE       2.83     2.83     0  00:30      0.0324      0.0324       0.007
  NGarden3             STORAGE       3.67     5.71     0  00:29      0.0419      0.0807       0.836
  SGarden2             STORAGE       0.00     3.92     0  00:32           0      0.0565       0.296
  SMyrtle11            STORAGE       0.00    37.18     0  00:30           0       0.501       0.124
  SMyrtle12            STORAGE       0.00     2.68     0  00:30           0      0.0229      -0.320
  SMyrtle3             STORAGE       0.00    10.53     0  00:28           0        0.13       0.183
  SMyrtle4             STORAGE       6.28    23.24     0  00:30      0.0719       0.303       0.059
  SMyrtle5             STORAGE       0.00    23.17     0  00:30           0       0.303       0.085
  SMyrtle6             STORAGE       8.66    31.74     0  00:30       0.099       0.401      -0.018
  SMyrtle8             STORAGE       0.00    30.98     0  00:30           0       0.399       0.291
  SMyrtle9             STORAGE       9.35    39.25     0  00:30       0.107       0.504      -0.010
  Turner2              STORAGE       0.00    61.58     0  00:31           0       0.968      -0.372
  Turner3              STORAGE       0.00    60.65     0  00:32           0       0.973       0.339
  Turner4              STORAGE       0.00    76.82     0  00:32           0        1.17       0.726
  Turner5              STORAGE      18.18    91.13     0  00:30       0.208         1.4       0.581
  Prospect4            STORAGE       0.00     5.22     0  00:30           0      0.0563      -0.162
  Chestnut14           STORAGE       0.00     7.68     0  00:30           0      0.0884       0.263
  Chestnut15           STORAGE       7.70     7.70     0  00:30      0.0886      0.0886      -0.000
  Chestnut6            STORAGE       0.00     0.04     0  00:51           0    0.000793       2.828
  Court11              STORAGE       6.17     6.30     0  00:29      0.0706      0.0826       1.023
  Court6               STORAGE       0.00    22.77     0  00:32           0       0.295      -0.298
  Frank1               STORAGE       0.00     8.10     0  00:30           0      0.0874      -0.532
  Frank4               STORAGE       0.00     2.72     0  00:30           0      0.0276     -10.304
  Pierce17             STORAGE       0.00    25.24     0  00:32           0       0.425       0.346
  SGarden3             STORAGE       7.77    11.43     0  00:30      0.0891       0.145       0.881
  SGarden4             STORAGE       0.00    18.49     0  00:30           0       0.227      -0.391
  NGarden1             STORAGE       0.00     4.99     0  00:30           0      0.0785      -0.370
  Turner1              STORAGE       9.24    25.99     0  00:30       0.105       0.469       2.091
  Turner6              STORAGE      11.80    99.75     0  00:30       0.137        1.52       0.572
  Prospect1            STORAGE       0.63     8.44     0  00:30     0.00716      0.0993       3.009
  Prospect2            STORAGE       0.00     8.29     0  00:30           0      0.0931       2.662
  Prospect6            STORAGE       0.00     3.78     0  00:33           0      0.0515       0.608
  Prospect9            STORAGE       0.00     4.29     0  00:37           0      0.0731       2.384
  AltUS19_1            STORAGE       0.00     3.54     0  00:30           0      0.0409       0.663
  AltUS19_2            STORAGE       3.59     3.59     0  00:30       0.041       0.041      -0.113
  Chestnut2            STORAGE       0.00     3.19     0  00:30           0      0.0364       1.352
  Chestnut3            STORAGE       0.00     3.18     0  00:30           0      0.0358      -1.095
  Chestnut4            STORAGE       0.00     0.00     0  00:00           0           0       0.000 gal
  Frank2               STORAGE       0.00     8.73     0  00:30           0      0.0875      -0.211
  Frank3               STORAGE       6.40     8.76     0  00:30       0.073      0.0885       0.838
  Pierce13             STORAGE       2.61     8.27     0  00:24      0.0297       0.148       1.333
  Pierce16             STORAGE       0.00    22.49     0  00:30           0       0.383      -0.543
  SGarden5             STORAGE       0.00    11.50     0  00:30           0       0.161       0.054
  SGarden7             STORAGE       0.00     5.10     0  00:33           0      0.0825       0.210
  SGarden8             STORAGE       0.00     4.89     0  00:33           0      0.0778       0.186
  SMyrtle22            STORAGE       0.00    10.10     0  00:30           0       0.161       0.649
  SMyrtle15a           STORAGE       0.00     0.00     0  00:00           0           0       0.000 gal
  Pierce1              STORAGE       0.00     7.75     0  00:32           0       0.128       1.307
  Pierce2              STORAGE       0.00     7.88     0  00:30           0      0.0942       0.620
  Pierce5              STORAGE       5.71    65.66     0  00:30      0.0657       0.841       0.261
  Prospect8            STORAGE       0.00     4.64     0  00:31           0      0.0673       0.998
  Ewing1               STORAGE       3.01     3.01     0  00:30      0.0344      0.0344       2.759
  Pierce4              STORAGE       0.00    67.97     0  00:30           0       0.872       0.256
  Chestnut5            STORAGE       0.00     0.00     0  00:00           0           0       0.000 gal
  Prospect12           STORAGE       0.00    10.15     0  00:40           0       0.174       1.215
  SMyrtle14            STORAGE       0.00     5.30     0  00:17           0      0.0701       0.536
  SMyrtle16            STORAGE       5.53    15.02     0  00:30      0.0633       0.201       0.606
  Chestnut10           STORAGE       4.86     4.86     0  00:30      0.0555      0.0562       0.328
  Chestnut7            STORAGE       0.00     0.08     0  00:40           0     0.00117       1.663
  Chestnut8            STORAGE       0.00     0.15     0  00:31           0     0.00118       2.168
  Chestnut9            STORAGE       0.00     0.28     0  00:22           0     0.00219       3.241
  Pond2i               STORAGE       0.00     0.96     0  00:50           0      0.0381      -0.329
  SMyrtle15            STORAGE       4.94     9.83     0  00:30      0.0565       0.126       0.483
  SMyrtle17            STORAGE       0.00    11.83     0  00:30           0       0.176       0.264
  SMyrtle20            STORAGE       5.15     7.50     0  00:32      0.0608       0.119       0.367
  Cleland1             STORAGE       4.27     4.27     0  00:30      0.0487      0.0487       0.746
  Grnwood1             STORAGE       0.00    16.56     0  00:30           0       0.212      -0.088
  Grnwood2             STORAGE       3.33    16.65     0  00:30      0.0381       0.213       0.294
  Grnwood3             STORAGE       0.00    13.51     0  00:30           0       0.176       0.129
  Pierce10             STORAGE      15.45    15.45     0  00:30       0.185       0.185       0.095
  Pierce6              STORAGE       8.51    45.16     0  00:30       0.099       0.567       0.099
  Pierce7              STORAGE       2.48    36.98     0  00:30      0.0284       0.469       0.044
  Pierce8              STORAGE       0.00    35.83     0  00:30           0       0.442       0.029
  Prospect3            STORAGE       3.36     8.56     0  00:30      0.0403      0.0969       2.008
  Prospect5            STORAGE       0.00     5.23     0  00:30           0      0.0566       0.178
  Prospect10           STORAGE       3.98     5.59     0  00:39      0.0456       0.152       2.760
  Bay1                 STORAGE       0.00     0.00     0  00:00           0           0       0.000 gal
  Chestnut1            STORAGE       3.20     3.20     0  00:30      0.0366      0.0366       0.052
  Chestnut12           STORAGE       0.00     3.75     0  00:30           0      0.0335       0.165
  Chestnut13           STORAGE       0.00     7.62     0  00:30           0      0.0878       0.176
  Cleland3             STORAGE       0.00    14.09     0  00:33           0       0.219       0.634
  Cleland4             STORAGE       5.27     5.27     0  00:30      0.0604      0.0604       0.240
  Court1               STORAGE       4.74     4.74     0  00:30      0.0542      0.0542      -0.012
  Court10              STORAGE       0.00    24.58     0  00:34           0       0.335       0.042
  Court12              STORAGE       0.00     2.42     0  00:14           0      0.0147      -2.186
  Court13              STORAGE       0.00     2.24     0  00:12           0     0.00845       2.097
  Court14              STORAGE       5.18     5.18     0  00:30      0.0592      0.0598       0.639
  Court15              STORAGE       0.00     4.80     0  00:22           0      0.0531       1.788
  Court16              STORAGE       0.00     4.65     0  00:30           0      0.0517       0.779
  Court3               STORAGE       0.00     4.72     0  00:30           0      0.0538       0.325
  Court7               STORAGE       0.00    22.60     0  00:33           0       0.298       0.322
  Court8               STORAGE       4.31    24.87     0  00:32      0.0492       0.344       1.156
  Court9               STORAGE       0.00    24.69     0  00:33           0       0.336      -0.086
  Druid3               STORAGE       0.00    16.60     0  00:30           0       0.189       3.551
  Druid4               STORAGE       0.00     0.00     0  00:00           0           0       0.000 gal
  Grancen1             STORAGE       4.97     4.97     0  00:30      0.0567      0.0567      -0.001
  Jeffords1            STORAGE       0.00     1.48     0  00:17           0      0.0054       0.331
  NMyrtle1             STORAGE      14.34    25.83     0  00:30       0.164       0.379       0.327
  Pierce12             STORAGE       0.00     2.67     0  00:31           0      0.0244       0.863
  Pierce14             STORAGE       0.00     7.62     0  00:37           0       0.151       1.901
  Pierce15             STORAGE       7.45    23.63     0  00:30      0.0851       0.394       0.836
  Pierce23             STORAGE       0.00     2.83     0  00:30           0      0.0322      -0.008
  Prospect11           STORAGE       0.00     8.51     0  00:38           0       0.169       0.896
  Prospect13           STORAGE       6.55    16.83     0  00:30      0.0759       0.194       0.072
  Prospect14           STORAGE      10.33    10.33     0  00:30       0.118       0.118       0.097
  Prospect7            STORAGE       5.19     5.19     0  00:30      0.0596      0.0596       0.388
  SGarden1             STORAGE       0.00     3.83     0  00:30           0      0.0542       0.144
  NGarden2             STORAGE       0.00     5.24     0  00:29           0      0.0796       0.563
  SGarden6             STORAGE       7.56    11.80     0  00:30      0.0863       0.167       0.223
  SMyrtle1             STORAGE       2.99     5.89     0  00:30      0.0343       0.068       0.067
  SMyrtle18            STORAGE       0.00    11.50     0  00:30           0        0.19       0.456
  SMyrtle19            STORAGE       0.00     3.97     0  00:33           0      0.0622       0.196
  SMyrtle2             STORAGE       0.00    10.64     0  00:29           0       0.125       0.090
  SMyrtle21            STORAGE       4.45    11.09     0  00:30      0.0509       0.161       0.485
  Tuska1               STORAGE       2.98     2.98     0  00:30       0.034       0.034       0.200
  Frank5               STORAGE       0.00     0.00     0  00:00           0           0       0.000 gal
  NMyrtle2             STORAGE       3.70    28.16     0  00:30      0.0437       0.419       0.764
  NMyrtle3             STORAGE       0.00    31.91     0  00:31           0       0.468       0.275
  TP10                 STORAGE       0.00    75.06     0  00:31           0       0.995       0.478
  TP20                 STORAGE       0.00    60.61     0  00:30           0       0.774       0.020
  TP30                 STORAGE       0.00    16.22     0  00:32           0        0.21       0.071
  TP40                 STORAGE       0.00    16.31     0  00:31           0       0.211       0.180
  
  
  **********************
  Node Surcharge Summary
  **********************
  
  No nodes were surcharged.
  
  
  *********************
  Node Flooding Summary
  *********************
  
  No nodes were flooded.
  
  
  **********************
  Storage Volume Summary
  **********************
  
  ------------------------------------------------------------------------------------------------
                         Average    Avg   Evap  Exfil     Maximum    Max    Time of Max    Maximum
                          Volume   Pcnt   Pcnt   Pcnt      Volume   Pcnt     Occurrence    Outflow
  Storage Unit          1000 ftł   Full   Loss   Loss    1000 ftł   Full    days hr:min        CFS
  ------------------------------------------------------------------------------------------------
  BLTrail1                 0.356    0.0    0.0    0.0       0.569    0.0       0  00:39       7.39
  BLTrail4                 7.184    0.1    0.0    0.0      14.360    0.2       0  00:37       7.04
  BLTrail5                 0.226    0.0    0.0    0.0       0.824    0.0       0  00:27      13.18
  Hart4                    1.643    0.4    0.0    0.0       2.031    0.5       0  02:00       0.00
  Jones5                   0.266    0.0    0.0    0.0       0.733    0.0       0  00:33      64.80
  NGarden6                 0.096    0.0    0.0    0.0       0.282    0.0       0  00:30       2.51
  NMyrtle6                 0.302    0.0    0.0    0.0       0.815    0.0       0  00:31      53.14
  Rogers1                  6.369    1.4    0.0    0.0       9.411    2.0       0  00:44       1.38
  Druid5                   0.954    0.6    0.0    0.0       0.954    0.6       0  00:00       0.00
  Jasmine3                 9.953   10.3    0.0    0.0      11.501   11.9       0  02:00       0.05
  Magnolia1                0.933    0.9    0.0    0.0       2.222    2.1       0  00:31       3.04
  Pond2                    0.061    1.4    0.0    0.0       0.079    1.8       0  00:50       0.96
  Prospect1w               0.065    1.3    0.0    0.0       0.173    3.5       0  00:36       3.78
  Pinellas1                0.000    0.0    0.0    0.0       0.000    0.0       0  00:00       0.00
  TownPondw                0.237    0.0    0.0    0.0       0.535    0.0       0  00:35       1.81
  TownPond              1612.126   18.9    0.0    0.0    1651.427   19.4       0  02:00       0.44
  Pond1                    8.060    0.2    0.0    0.0      10.989    0.3       0  00:49       0.96
  Jasmine2                 3.512    0.0    0.0    0.0       5.711    0.0       0  02:00       6.14
  Magnolia2                0.079    0.0    0.0    0.0       0.186    0.0       0  00:32       3.03
  Druid1                   0.264    0.0    0.0    0.0       0.899    0.0       0  00:30      16.62
  SMyrtle7                 0.424    0.0    0.0    0.0       1.166    0.0       0  00:31      30.98
  SMyrtle10                0.486    0.0    0.0    0.0       1.318    0.1       0  00:31      37.18
  SMyrtle13                0.247    0.0    0.0    0.0       0.609    0.0       0  00:30       7.78
  Pierce11                 0.186    0.0    0.0    0.0       0.524    0.0       0  00:33       3.92
  BLTrail2                 0.285    0.0    0.0    0.0       0.496    0.0       0  00:40       7.00
  BLTrail3                 0.247    0.0    0.0    0.0       0.431    0.0       0  00:39       7.02
  Drew1                    0.138    0.0    0.0    0.0       0.406    0.0       0  00:30       8.02
  Drew2                    0.178    0.0    0.0    0.0       0.508    0.0       0  00:30       8.05
  Drew3                    0.273    0.0    0.0    0.0       0.565    0.0       0  00:30       5.91
  Drew4                    0.099    0.0    0.0    0.0       0.364    0.0       0  00:30       3.09
  Drew5                    0.097    0.0    0.0    0.0       0.289    0.0       0  00:30       3.05
  Drew6                    0.096    0.0    0.0    0.0       0.287    0.0       0  00:30       4.61
  Hart1                    0.253    0.0    0.0    0.0       0.932    0.0       0  00:30       8.75
  Hart2                    0.000    0.0    0.0    0.0       0.000    0.0       0  00:00       0.00
  Hart3                    0.000    0.0    0.0    0.0       0.000    0.0       0  00:00       0.00
  Jones1                   2.063    0.0    0.0    0.0       2.096    0.0       0  00:34      77.48
  Jones2                   0.400    0.0    0.0    0.0       0.864    0.0       0  00:34      77.47
  Jones3                   0.246    0.0    0.0    0.0       0.679    0.0       0  00:34      77.36
  Jones4                   0.344    0.0    0.0    0.0       0.849    0.0       0  00:33      68.27
  Jones6                   0.295    0.0    0.0    0.0       0.777    0.0       0  00:33      60.76
  Jones7                   0.233    0.0    0.0    0.0       0.716    0.0       0  00:32      53.70
  NGarden4                 0.182    0.0    0.0    0.0       0.466    0.0       0  00:32       2.84
  NGarden5                 0.189    0.0    0.0    0.0       0.483    0.0       0  00:32       0.63
  NGarden7                 0.090    0.0    0.0    0.0       0.252    0.0       0  00:30       4.77
  NMyrtle4                 0.202    0.0    0.0    0.0       0.495    0.0       0  00:31      35.14
  NMyrtle5                 0.092    0.0    0.0    0.0       0.303    0.0       0  00:31      39.99
  NMyrtle7                 0.129    0.0    0.0    0.0       0.393    0.0       0  00:30      14.00
  NMyrtle8                 0.210    0.0    0.0    0.0       0.588    0.0       0  00:30      11.37
  NOsceola1                0.182    0.0    0.0    0.0       0.548    0.0       0  00:30       9.87
  NOsceola2                0.155    0.0    0.0    0.0       0.481    0.0       0  00:30       9.85
  Cleland2                 0.210    0.0    0.0    0.0       0.387    0.0       0  00:30       0.98
  Grnwood4                 0.161    0.0    0.0    0.0       0.370    0.0       0  00:30      13.51
  Grnwood5                 0.199    0.0    0.0    0.0       0.494    0.0       0  00:30      10.99
  Pierce9                  0.261    0.0    0.0    0.0       0.748    0.0       0  00:30      35.83
  Washing1                 0.908    0.0    0.0    0.0       1.562    0.0       0  00:30      10.12
  Washing2                 0.204    0.0    0.0    0.0       0.479    0.0       0  00:30       6.12
  Chestnut11               0.103    0.0    0.0    0.0       0.343    0.0       0  00:30       4.67
  Court17                  0.047    0.0    0.0    0.0       0.148    0.0       0  00:32       4.57
  Court2                   0.157    0.0    0.0    0.0       0.477    0.0       0  00:30       4.72
  Court4                   0.124    0.0    0.0    0.0       0.385    0.0       0  00:31       4.66
  Court5                   0.424    0.0    0.0    0.0       1.035    0.0       0  00:32      22.77
  Druid2                   0.277    0.0    0.0    0.0       0.886    0.0       0  00:30      16.60
  Druid6                   0.000    0.0    0.0    0.0       0.000    0.0       0  00:00       0.00
  East1                    0.222    0.0    0.0    0.0       0.684    0.0       0  00:31      16.54
  Jasmine1                 0.337    0.0    0.0    0.0       0.470    0.0       0  02:00       2.75
  Lotus1                   0.595    0.0    0.0    0.0       2.505    0.0       0  00:31       7.94
  Magnolia3                0.136    0.0    0.0    0.0       0.309    0.0       0  00:33       2.99
  Magnolia4                0.092    0.0    0.0    0.0       0.225    0.0       0  00:33       2.99
  Pierce18                 0.559    0.0    0.0    0.0       1.106    0.0       0  00:30      30.70
  Pierce19                 0.178    0.0    0.0    0.0       0.375    0.0       0  00:31      33.53
  Pierce20                 1.978    0.1    0.0    0.0       2.131    0.1       0  00:30      35.95
  Pierce21                 0.057    0.0    0.0    0.0       0.182    0.0       0  00:31       2.83
  Pierce22                 0.060    0.0    0.0    0.0       0.188    0.0       0  00:30       2.83
  Pierce24                 0.065    0.0    0.0    0.0       0.209    0.0       0  00:30       2.83
  Pierce25                 0.068    0.0    0.0    0.0       0.219    0.0       0  00:30       2.83
  Pierce26                 0.095    0.0    0.0    0.0       0.322    0.0       0  00:30       2.83
  NGarden3                 0.211    0.0    0.0    0.0       0.637    0.0       0  00:30       5.24
  SGarden2                 0.247    0.0    0.0    0.0       0.656    0.0       0  00:30       4.46
  SMyrtle11                0.422    0.0    0.0    0.0       1.338    0.0       0  00:32      36.24
  SMyrtle12                0.029    0.0    0.0    0.0       0.120    0.0       0  00:30       2.67
  SMyrtle3                 0.296    0.0    0.0    0.0       0.822    0.0       0  00:33       9.69
  SMyrtle4                 0.208    0.0    0.0    0.0       0.555    0.0       0  00:30      23.17
  SMyrtle5                 0.226    0.1    0.0    0.0       0.600    0.2       0  00:30      23.12
  SMyrtle6                 0.237    0.1    0.0    0.0       0.626    0.3       0  00:30      31.67
  SMyrtle8                 0.421    0.2    0.0    0.0       1.143    0.5       0  00:31      30.37
  SMyrtle9                 0.340    0.2    0.0    0.0       1.101    0.5       0  00:31      38.11
  Turner2                  0.565    0.0    0.0    0.0       1.505    0.0       0  00:32      60.65
  Turner3                  0.812    0.0    0.0    0.0       1.737    0.0       0  00:32      61.29
  Turner4                  1.648    0.0    0.0    0.0       2.541    0.1       0  00:32      77.22
  Turner5                  0.522    0.0    0.0    0.0       1.177    0.0       0  00:30      89.69
  Prospect4                0.109    0.0    0.0    0.0       0.331    0.0       0  00:30       5.21
  Chestnut14               0.171    0.0    0.0    0.0       0.514    0.0       0  00:30       7.62
  Chestnut15               0.135    0.0    0.0    0.0       0.411    0.0       0  00:30       7.68
  Chestnut6                0.013    0.0    0.0    0.0       0.023    0.0       0  01:05       0.03
  Court11                  0.198    0.0    0.0    0.0       0.642    0.0       0  00:30       6.20
  Court6                   0.385    0.0    0.0    0.0       1.030    0.1       0  00:33      22.60
  Frank1                   0.288    0.0    0.0    0.0       0.894    0.0       0  00:31       7.60
  Frank4                   0.521    0.0    0.0    0.0       0.872    0.0       0  00:31       2.53
  Pierce17                 0.528    0.0    0.0    0.0       1.140    0.0       0  00:31      25.62
  SGarden3                 0.296    0.0    0.0    0.0       0.705    0.0       0  00:30      11.33
  SGarden4                 0.335    0.0    0.0    0.0       0.953    0.0       0  00:32      17.90
  NGarden1                 0.293    0.0    0.0    0.0       0.680    0.0       0  00:33       4.89
  Turner1                  0.549    0.0    0.0    0.0       1.240    0.0       0  00:32      24.10
  Turner6                  0.403    0.0    0.0    0.0       0.892    0.0       0  00:31      98.53
  Prospect1                0.930    0.0    0.0    0.0       1.008    0.0       0  01:55       7.88
  Prospect2                0.407    0.0    0.0    0.0       0.477    0.0       0  01:55       7.84
  Prospect6                0.144    0.0    0.0    0.0       0.377    0.0       0  00:36       3.90
  Prospect9                0.227    0.1    0.0    0.0       0.558    0.2       0  00:36       4.44
  AltUS19_1                0.193    0.0    0.0    0.0       0.530    0.0       0  00:30       3.47
  AltUS19_2                0.164    0.0    0.0    0.0       0.550    0.0       0  00:30       3.54
  Chestnut2                0.079    0.0    0.0    0.0       0.226    0.0       0  00:30       3.18
  Chestnut3                0.095    0.0    0.0    0.0       0.270    0.0       0  00:30       3.16
  Chestnut4                0.000    0.0    0.0    0.0       0.000    0.0       0  00:00       0.00
  Frank2                   0.221    0.0    0.0    0.0       0.771    0.0       0  00:31       8.10
  Frank3                   0.128    0.0    0.0    0.0       0.402    0.0       0  00:30       8.73
  Pierce13                 0.404    0.0    0.0    0.0       0.892    0.0       0  00:32       7.62
  Pierce16                 0.485    0.0    0.0    0.0       1.100    0.0       0  00:32      21.88
  SGarden5                 0.145    0.0    0.0    0.0       0.366    0.0       0  00:30      11.48
  SGarden7                 0.377    0.0    0.0    0.0       0.836    0.0       0  00:30       5.62
  SGarden8                 0.163    0.0    0.0    0.0       0.402    0.0       0  00:32       5.10
  SMyrtle22                0.808    0.0    0.0    0.0       2.524    0.0       0  00:33      10.59
  SMyrtle15a               0.000    0.0    0.0    0.0       0.000    0.0       0  00:00       0.00
  Pierce1                  3.780    0.1    0.0    0.0       3.861    0.1       0  02:00       7.59
  Pierce2                  0.963    0.0    0.0    0.0       1.043    0.0       0  01:55       7.56
  Pierce5                  0.667    0.0    0.0    0.0       1.238    0.0       0  00:30      65.60
  Prospect8                0.204    0.0    0.0    0.0       0.523    0.0       0  00:34       4.50
  Ewing1                   0.281    0.0    0.0    0.0       0.616    0.0       0  00:31       2.70
  Pierce4                  1.145    0.0    0.0    0.0       1.497    0.0       0  00:31      67.78
  Chestnut5                0.000    0.0    0.0    0.0       0.000    0.0       0  00:00       0.00
  Prospect12               0.456    0.0    0.0    0.0       1.103    0.0       0  00:32      11.81
  SMyrtle14                0.266    0.0    0.0    0.0       0.674    0.1       0  00:30       5.10
  SMyrtle16                0.299    0.0    0.0    0.0       0.663    0.1       0  00:30      14.52
  Chestnut10               0.090    0.0    0.0    0.0       0.264    0.0       0  00:30       4.85
  Chestnut7                0.050    0.0    0.0    0.0       0.072    0.0       0  00:51       0.04
  Chestnut8                0.031    0.0    0.0    0.0       0.065    0.0       0  00:39       0.08
  Chestnut9                0.053    0.0    0.0    0.0       0.151    0.0       0  00:31       0.29
  Pond2i                   0.107    0.0    0.0    0.0       0.243    0.0       0  00:00       2.65
  SMyrtle15                0.301    0.0    0.0    0.0       0.707    0.1       0  00:30       9.50
  SMyrtle17                0.332    0.0    0.0    0.0       0.691    0.0       0  00:30      11.50
  SMyrtle20                0.312    0.0    0.0    0.0       0.700    0.1       0  00:33       7.40
  Cleland1                 0.350    0.0    0.0    0.0       0.703    0.0       0  00:30       4.26
  Grnwood1                 0.310    0.0    0.0    0.0       0.775    0.0       0  00:31      16.31
  Grnwood2                 0.142    0.0    0.0    0.0       0.347    0.0       0  00:30      16.56
  Grnwood3                 0.189    0.0    0.0    0.0       0.436    0.0       0  00:30      13.48
  Pierce10                 0.159    0.0    0.0    0.0       0.433    0.0       0  00:30      15.32
  Pierce6                  0.486    0.0    0.0    0.0       1.371    0.0       0  00:30      44.93
  Pierce7                  0.332    0.0    0.0    0.0       0.921    0.0       0  00:30      36.84
  Pierce8                  0.546    0.0    0.0    0.0       2.286    0.0       0  00:31      35.06
  Prospect3                0.349    0.0    0.0    0.0       0.463    0.0       0  00:31       8.29
  Prospect5                0.100    0.0    0.0    0.0       0.319    0.0       0  00:30       5.22
  Prospect10               0.325    0.1    0.0    0.0       0.691    0.3       0  00:35       7.05
  Bay1                     0.000    0.0    0.0    0.0       0.000    0.0       0  00:00       0.00
  Chestnut1                0.060    0.0    0.0    0.0       0.173    0.0       0  00:30       3.19
  Chestnut12               0.162    0.0    0.0    0.0       0.448    0.0       0  00:31       3.74
  Chestnut13               0.209    0.0    0.0    0.0       0.545    0.0       0  00:30       7.58
  Cleland3                 0.357    0.0    0.0    0.0       0.765    0.0       0  00:32      14.45
  Cleland4                 0.131    0.0    0.0    0.0       0.392    0.0       0  00:30       5.19
  Court1                   0.104    0.0    0.0    0.0       0.334    0.0       0  00:30       4.74
  Court10                  0.121    0.0    0.0    0.0       0.292    0.0       0  00:34      24.58
  Court12                  0.237    0.0    0.0    0.0       0.669    0.0       0  00:30       1.84
  Court13                  0.267    0.0    0.0    0.0       0.704    0.0       0  00:30       1.21
  Court14                  0.141    0.0    0.0    0.0       0.518    0.0       0  00:30       5.11
  Court15                  0.206    0.0    0.0    0.0       0.684    0.0       0  00:30       4.65
  Court16                  0.167    0.0    0.0    0.0       0.529    0.0       0  00:32       4.57
  Court3                   0.132    0.0    0.0    0.0       0.417    0.0       0  00:31       4.69
  Court7                   0.542    0.0    0.0    0.0       1.166    0.1       0  00:33      22.62
  Court8                   0.459    0.0    0.0    0.0       1.033    0.1       0  00:33      24.69
  Court9                   0.335    0.0    0.0    0.0       0.804    0.1       0  00:34      24.58
  Druid3                   0.232    0.0    0.0    0.0       0.751    0.0       0  00:30      16.55
  Druid4                   0.000    0.0    0.0    0.0       0.000    0.0       0  00:00       0.00
  Grancen1                 0.244    0.0    0.0    0.0       1.019    0.0       0  00:30       4.82
  Jeffords1                0.151    0.0    0.0    0.0       0.679    0.0       0  00:33       1.17
  NMyrtle1                 0.290    0.0    0.0    0.0       0.716    0.0       0  00:30      24.73
  Pierce12                 0.195    0.0    0.0    0.0       0.573    0.0       0  00:33       2.25
  Pierce14                 0.372    0.0    0.0    0.0       0.936    0.0       0  00:31       8.78
  Pierce15                 0.467    0.0    0.0    0.0       1.042    0.0       0  00:31      22.49
  Pierce23                 0.058    0.0    0.0    0.0       0.183    0.0       0  00:30       2.83
  Prospect11               0.417    0.2    0.0    0.0       0.967    0.5       0  00:31      10.15
  Prospect13               0.168    0.0    0.0    0.0       0.491    0.0       0  00:30      16.76
  Prospect14               0.161    0.0    0.0    0.0       0.479    0.0       0  00:30      10.29
  Prospect7                0.184    0.0    0.0    0.0       0.443    0.0       0  00:30       5.15
  SGarden1                 0.196    0.0    0.0    0.0       0.535    0.0       0  00:31       3.92
  NGarden2                 0.276    0.0    0.0    0.0       0.738    0.0       0  00:32       4.99
  SGarden6                 0.293    0.0    0.0    0.0       0.760    0.0       0  00:30      11.50
  SMyrtle1                 0.099    0.0    0.0    0.0       0.288    0.0       0  00:30       5.86
  SMyrtle18                0.242    0.0    0.0    0.0       0.628    0.1       0  00:32      10.83
  SMyrtle19                0.269    0.0    0.0    0.0       0.659    0.1       0  00:32       3.99
  SMyrtle2                 0.236    0.0    0.0    0.0       0.599    0.0       0  00:30      10.53
  SMyrtle21                0.336    0.0    0.0    0.0       0.729    0.0       0  00:33      10.10
  Tuska1                   0.148    0.0    0.0    0.0       0.469    0.0       0  00:30       2.90
  Frank5                   0.000    0.0    0.0    0.0       0.000    0.0       0  00:00       0.00
  NMyrtle2                 0.282    0.0    0.0    0.0       0.688    0.0       0  00:31      27.50
  NMyrtle3                 0.214    0.0    0.0    0.0       0.567    0.0       0  00:31      31.73
  TP10                     7.988    0.6    0.0    0.0       8.159    0.7       0  02:00      74.47
  TP20                     0.265    0.0    0.0    0.0       0.740    0.1       0  00:30      60.67
  TP30                     0.186    0.0    0.0    0.0       0.492    0.1       0  00:32      16.19
  TP40                     0.298    0.1    0.0    0.0       0.755    0.2       0  00:31      16.22
  
  
  ***********************
  Outfall Loading Summary
  ***********************
  
  -----------------------------------------------------------
                         Flow       Avg       Max       Total
                         Freq      Flow      Flow      Volume
  Outfall Node           Pcnt       CFS       CFS    10^6 gal
  -----------------------------------------------------------
  Jones_OF              96.89     23.03     77.48       1.202
  Outfall1              99.81     10.66     35.95       0.573
  Outfall1b              0.00      0.00      0.00       0.000
  Outfall2              90.42      6.88     24.58       0.335
  Outfall3              88.75      1.06      4.57       0.051
  Outfall4              99.08     28.22     98.53       1.506
  Pinell_OF              0.00      0.00      0.00       0.000
  -----------------------------------------------------------
  System                67.85     69.85    235.98       3.666
  
  
  ********************
  Link Flow Summary
  ********************
  
  -----------------------------------------------------------------------------
                                 Maximum  Time of Max   Maximum    Max/    Max/
                                  |Flow|   Occurrence   |Veloc|    Full    Full
  Link                 Type          CFS  days hr:min    ft/sec    Flow   Depth
  -----------------------------------------------------------------------------
  cBLTrail1            CONDUIT      7.39     0  00:39      4.01    0.68    0.57
  cBLTrail2            CONDUIT      7.00     0  00:40      3.59    0.59    0.60
  cBLTrail3            CONDUIT      7.02     0  00:38      4.41    0.34    0.52
  cBLTrail4            CONDUIT      7.04     0  00:37      3.34    0.84    0.64
  cBLTrail5a           CONDUIT      6.59     0  00:30      5.21    0.46    0.72
  cBLTrail5b           CONDUIT      6.59     0  00:30      5.21    0.46    0.72
  cDrew1               CONDUIT      8.02     0  00:30      4.76    0.43    0.53
  cDrew2               CONDUIT      8.05     0  00:30      3.41    0.92    0.65
  cDrew3               CONDUIT      5.91     0  00:30      3.54    0.50    0.53
  cDrew4               CONDUIT      3.09     0  00:30      1.87    0.42    0.86
  cDrew5               CONDUIT      3.05     0  00:30      4.06    0.39    0.44
  cDrew6               CONDUIT      4.61     0  00:30      5.33    0.21    0.32
  cHart1               CONDUIT      8.75     0  00:30      5.89    0.40    0.48
  cHart2               CONDUIT      0.00     0  00:00      0.00    0.00    0.00
  cHart3               CONDUIT      0.00     0  00:00      0.00    0.00    0.00
  cJones1              CONDUIT     77.48     0  00:34      1.97    0.19    0.98
  cJones2              CONDUIT     77.47     0  00:34      5.79    0.21    0.33
  cJones3              CONDUIT     77.36     0  00:34      7.14    0.16    0.27
  cJones4              CONDUIT     68.27     0  00:34      4.87    0.32    0.35
  cJones5              CONDUIT     64.80     0  00:33      4.47    0.21    0.36
  cJones6              CONDUIT     60.76     0  00:33      5.01    0.26    0.35
  cJones7              CONDUIT     53.70     0  00:32      4.48    0.19    0.34
  cNGarden4            CONDUIT      2.84     0  00:35      2.45    0.49    0.78
  cNGarden5            CONDUIT      0.77     0  00:30      1.77    0.31    0.73
  cNGarden6a           CONDUIT      2.51     0  00:30      3.20    0.16    0.30
  cNGarden6b           CONDUIT      0.06     0  00:32      0.09    0.01    0.40
  cNGarden7            CONDUIT      4.77     0  00:30      6.48    0.17    0.28
  cNMyrtle3            CONDUIT     31.73     0  00:31      4.34    0.18    0.24
  cNMyrtle4            CONDUIT     35.14     0  00:32      5.55    0.21    0.18
  cNMyrtle5            CONDUIT     39.99     0  00:32      4.45    0.05    0.26
  cNMyrtle6            CONDUIT     53.14     0  00:31      4.33    0.33    0.35
  cNMyrtle7            CONDUIT     14.00     0  00:30      8.28    0.12    0.36
  cNMyrtle8            CONDUIT     11.37     0  00:30      5.33    0.56    0.45
  cNOsceola1           CONDUIT      9.87     0  00:30      5.07    0.66    0.60
  cNOsceola2           CONDUIT      9.85     0  00:30      6.30    0.41    0.50
  cProspect2           CONDUIT      7.84     0  00:30      2.25    0.20    0.56
  cProspect3           CONDUIT      8.29     0  00:30      4.26    0.20    0.35
  cProspect4           CONDUIT      5.21     0  00:30      3.34    0.20    0.36
  cProspect5           CONDUIT      5.22     0  00:30      4.53    0.14    0.29
  cProspect1a          CONDUIT      7.88     0  00:30      1.51    0.49    0.78
  cPierce2             CONDUIT      7.56     0  00:30      1.40    0.27    0.81
  cPierce7             CONDUIT     36.84     0  00:30      9.45    0.77    0.74
  cPierce8             CONDUIT     35.06     0  00:31      7.90    0.85    0.85
  cPierce9             CONDUIT     35.83     0  00:30      9.50    0.67    0.73
  cPierce10            CONDUIT     15.32     0  00:30     10.01    0.47    0.49
  cWashing1            CONDUIT     10.12     0  00:30      4.35    0.23    0.50
  cWashing2            CONDUIT      6.12     0  00:30      2.62    0.57    0.70
  cGrnwood2            CONDUIT     16.56     0  00:30      4.88    0.15    0.42
  cGrnwood3            CONDUIT     13.48     0  00:30      6.00    0.28    0.36
  cGrnwood4            CONDUIT     13.51     0  00:30      6.15    0.26    0.45
  cGrnwood5            CONDUIT     10.99     0  00:30      7.10    0.57    0.50
  cEwing1              CONDUIT      2.70     0  00:18      0.86    0.03    0.67
  cCleland1            CONDUIT      4.26     0  00:30      2.23    0.34    0.58
  cCleland2            CONDUIT      0.98     0  00:30      1.19    0.10    0.31
  cTownPond            CONDUIT      3.46     0  00:31      2.50    0.04    0.34
  cProspect1b          CONDUIT      3.78     0  00:33      2.51    0.10    0.21
  cProspect6a          CONDUIT      3.06     0  00:37      1.68    0.06    0.25
[...]
  cCourt1                 1.00   0.00  0.00  0.00  0.89  0.11  0.00  0.00  0.72  0.00
  cCourt2                 1.00   0.04  0.00  0.00  0.94  0.02  0.00  0.00  0.12  0.00
  cCourt3                 1.00   0.05  0.00  0.00  0.89  0.05  0.00  0.00  0.29  0.00
  cCourt4                 1.00   0.09  0.00  0.00  0.00  0.00  0.00  0.91  0.00  0.00
  cBay1                   1.00   1.00  0.00  0.00  0.00  0.00  0.00  0.00  0.00  0.00
  cCourt11a               1.00   0.01  0.00  0.00  0.85  0.00  0.05  0.09  0.00  0.00
  cCourt12                1.00   0.02  0.00  0.00  0.91  0.00  0.00  0.07  0.00  0.00
  cCourt13                1.00   0.03  0.07  0.00  0.84  0.06  0.00  0.00  0.59  0.00
  cCourt14                1.00   0.00  0.00  0.00  0.89  0.00  0.00  0.11  0.70  0.00
  cCourt15                1.00   0.02  0.00  0.00  0.84  0.00  0.00  0.14  0.00  0.00
  cCourt16                1.00   0.06  0.00  0.00  0.00  0.00  0.00  0.94  0.00  0.00
  cCourt17                1.12   0.00  0.10  0.00  0.43  0.47  0.00  0.00  0.70  0.00
  cTurner1                1.00   0.00  0.00  0.00  0.56  0.00  0.00  0.44  0.00  0.00
  cTurner2                1.00   0.00  0.02  0.00  0.98  0.00  0.00  0.00  0.29  0.00
  cTurner3                1.00   0.00  0.00  0.00  1.00  0.00  0.00  0.00  0.00  0.00
  cTurner4                1.00   0.00  0.00  0.00  1.00  0.00  0.00  0.00  0.11  0.00
  cTurner5                1.00   0.00  0.00  0.00  0.11  0.89  0.00  0.00  0.00  0.00
  cTurner6                1.00   0.00  0.00  0.00  1.00  0.00  0.00  0.00  1.00  0.00
  cDruid3                 1.00   0.03  0.00  0.00  0.88  0.00  0.00  0.08  0.32  0.00
  cEast1                  1.00   0.06  0.00  0.00  0.00  0.00  0.00  0.94  0.00  0.00
  cDruid1                 1.00   0.00  0.00  0.00  0.94  0.00  0.00  0.06  0.09  0.00
  cDruid2                 1.00   0.01  0.00  0.00  0.95  0.03  0.00  0.00  0.19  0.00
  cDruid4a                1.00   1.00  0.00  0.00  0.00  0.00  0.00  0.00  0.00  0.00
  cDruid4b                1.00   0.00  1.00  0.00  0.00  0.00  0.00  0.00  0.00  0.00
  cDruid5                 1.00   1.00  0.00  0.00  0.00  0.00  0.00  0.00  0.00  0.00
  cDruid6                 1.00   1.00  0.00  0.00  0.00  0.00  0.00  0.00  0.00  0.00
  cMagnolia1              1.00   0.01  0.00  0.00  0.00  0.00  0.00  0.99  0.00  0.00
  cMagnolia2              1.00   0.04  0.00  0.00  0.73  0.09  0.00  0.14  0.77  0.00
  cMagnolia3              1.00   0.09  0.00  0.00  0.00  0.00  0.00  0.91  0.00  0.00
  cMagnolia4              1.00   0.14  0.00  0.00  0.74  0.00  0.00  0.12  0.72  0.00
  cJasmine1               1.00   0.13  0.04  0.00  0.83  0.00  0.00  0.00  0.05  0.00
  cJasmine2               1.55   0.00  0.00  0.00  1.00  0.00  0.00  0.00  0.06  0.00
  cProspct10b             1.00   0.00  0.00  0.00  0.00  0.00  0.00  1.00  0.00  0.00
  cPond2i                 1.00   0.00  0.00  0.00  0.00  0.00  0.00  1.00  0.00  0.00
  cPierce26               1.00   0.00  0.00  0.00  0.00  0.00  0.00  1.00  0.00  0.00
  cPierce25               1.00   0.02  0.00  0.00  0.26  0.72  0.00  0.00  0.71  0.00
  cPierce24               1.00   0.04  0.00  0.00  0.02  0.95  0.00  0.00  0.20  0.00
  cPierce23               1.00   0.06  0.00  0.00  0.01  0.93  0.00  0.00  0.68  0.00
  cPierce22               1.00   0.09  0.00  0.00  0.00  0.00  0.00  0.91  0.00  0.00
  cPierce21               1.69   0.10  0.00  0.00  0.00  0.00  0.00  0.90  0.00  0.00
  cGrancen1               1.00   0.00  0.00  0.00  1.00  0.00  0.00  0.00  0.53  0.00
  cJeffords1              1.00   0.00  0.09  0.00  0.91  0.00  0.00  0.00  0.25  0.00
  cLotus1                 1.00   0.00  0.00  0.00  0.00  0.00  0.00  1.00  0.00  0.00
  cTuska1                 1.00   0.00  0.00  0.00  0.00  0.00  0.00  1.00  0.00  0.00
  cCourt11b               1.00   0.00  0.00  0.00  0.00  0.00  0.00  1.00  0.00  0.00
  cRogers1                1.00   0.03  0.00  0.00  0.00  0.00  0.00  0.97  0.00  0.00
  cChestnt11b             1.00   0.05  0.00  0.00  0.00  0.00  0.00  0.95  0.00  0.00
  cChestnt10b             1.00   0.00  0.00  0.00  0.00  0.00  0.00  1.00  0.00  0.00
  cChestnut9b             1.00   0.03  0.02  0.00  0.35  0.00  0.00  0.60  0.00  0.00
  cSMyrtle15c             1.00   0.00  0.00  0.00  1.00  0.00  0.00  0.00  0.01  0.00
  cNMyrtle2a              1.00   0.00  0.00  0.00  1.00  0.00  0.00  0.00  0.00  0.00
  cNMyrtle2b              1.00   0.00  0.00  0.00  1.00  0.00  0.00  0.00  0.00  0.00
  cTP_10                  1.00   0.00  0.00  0.00  1.00  0.00  0.00  0.00  0.00  0.00
  cTP_Pierce1             1.00   0.00  0.00  0.00  1.00  0.00  0.00  0.00  0.00  0.00
  cTP_Pierce4             1.00   0.00  0.00  0.00  1.00  0.00  0.00  0.00  0.00  0.00
  cTP_Pierce5             1.00   0.00  0.00  0.00  0.74  0.00  0.00  0.26  0.00  0.00
  cTP_20                  1.00   0.00  0.02  0.00  0.62  0.36  0.00  0.00  0.68  0.00
  cTP_Pierce6             1.00   0.00  0.00  0.00  0.00  0.00  0.00  1.00  0.00  0.00
  cTP_30                  1.00   0.09  0.00  0.00  0.00  0.00  0.00  0.91  0.00  0.00
  cTP_40                  1.00   0.05  0.00  0.00  0.00  0.00  0.00  0.95  0.00  0.00
  cTP_Grnwod1             1.00   0.01  0.00  0.00  0.00  0.00  0.00  0.99  0.00  0.00
  cTP_TownPnd             1.00   0.00  0.27  0.00  0.00  0.00  0.73  0.00  0.00  0.00
  cTP_Prspct3             1.00   1.00  0.00  0.00  0.00  0.00  0.00  0.00  0.00  0.00
  oDrew1                  1.00   1.00  0.00  0.00  0.00  0.00  0.00  0.00  0.00  0.00
  oDrew3                  1.00   1.00  0.00  0.00  0.00  0.00  0.00  0.00  0.00  0.00
  oDrew4                  1.00   1.00  0.00  0.00  0.00  0.00  0.00  0.00  0.00  0.00
  oDrew5                  1.00   1.00  0.00  0.00  0.00  0.00  0.00  0.00  0.00  0.00
  oDrew6                  1.00   1.00  0.00  0.00  0.00  0.00  0.00  0.00  0.00  0.00
  oJones2                 2.11   1.00  0.00  0.00  0.00  0.00  0.00  0.00  0.00  0.00
  oJones3                 1.00   1.00  0.00  0.00  0.00  0.00  0.00  0.00  0.00  0.00
  oJones4                 1.00   1.00  0.00  0.00  0.00  0.00  0.00  0.00  0.00  0.00
  oJones5                 1.00   1.00  0.00  0.00  0.00  0.00  0.00  0.00  0.00  0.00
  oJones6                 1.00   1.00  0.00  0.00  0.00  0.00  0.00  0.00  0.00  0.00
  oJones7                 1.00   1.00  0.00  0.00  0.00  0.00  0.00  0.00  0.00  0.00
  oNGarden4               1.00   1.00  0.00  0.00  0.00  0.00  0.00  0.00  0.00  0.00
  oNGarden5               1.00   1.00  0.00  0.00  0.00  0.00  0.00  0.00  0.00  0.00
  oNGarden6               1.00   1.00  0.00  0.00  0.00  0.00  0.00  0.00  0.00  0.00
  oNMyrtle4               1.00   1.00  0.00  0.00  0.00  0.00  0.00  0.00  0.00  0.00
  oNMyrtle8               1.00   1.00  0.00  0.00  0.00  0.00  0.00  0.00  0.00  0.00
  oNOsceola1              1.00   1.00  0.00  0.00  0.00  0.00  0.00  0.00  0.00  0.00
  oNOsceola2              1.66   1.00  0.00  0.00  0.00  0.00  0.00  0.00  0.00  0.00
  o2Jones4                1.00   1.00  0.00  0.00  0.00  0.00  0.00  0.00  0.00  0.00
  o2NMyrtle3              1.22   1.00  0.00  0.00  0.00  0.00  0.00  0.00  0.00  0.00
  oTuska1                 1.00   1.00  0.00  0.00  0.00  0.00  0.00  0.00  0.00  0.00
  oSMyrtle1               1.00   1.00  0.00  0.00  0.00  0.00  0.00  0.00  0.00  0.00
  oSMyrtle2               1.00   1.00  0.00  0.00  0.00  0.00  0.00  0.00  0.00  0.00
  oSMyrtle3               1.00   1.00  0.00  0.00  0.00  0.00  0.00  0.00  0.00  0.00
  oSMyrtle4               1.00   1.00  0.00  0.00  0.00  0.00  0.00  0.00  0.00  0.00
  oSMyrtle5               1.00   1.00  0.00  0.00  0.00  0.00  0.00  0.00  0.00  0.00
  oSMyrtle6               1.00   1.00  0.00  0.00  0.00  0.00  0.00  0.00  0.00  0.00
  oMagnolia3              1.00   1.00  0.00  0.00  0.00  0.00  0.00  0.00  0.00  0.00
  oSMyrtle7               1.00   1.00  0.00  0.00  0.00  0.00  0.00  0.00  0.00  0.00
  oDruid1                 1.00   1.00  0.00  0.00  0.00  0.00  0.00  0.00  0.00  0.00
  oDruid2                 1.00   1.00  0.00  0.00  0.00  0.00  0.00  0.00  0.00  0.00
  oProspct14              1.00   1.00  0.00  0.00  0.00  0.00  0.00  0.00  0.00  0.00
  oTurner5                1.00   1.00  0.00  0.00  0.00  0.00  0.00  0.00  0.00  0.00
  oTurner6                1.00   1.00  0.00  0.00  0.00  0.00  0.00  0.00  0.00  0.00
  oProspct13              1.00   1.00  0.00  0.00  0.00  0.00  0.00  0.00  0.00  0.00
  oTurner1                1.00   1.00  0.00  0.00  0.00  0.00  0.00  0.00  0.00  0.00
  oTurner3                1.00   1.00  0.00  0.00  0.00  0.00  0.00  0.00  0.00  0.00
  oTurner4                1.00   1.00  0.00  0.00  0.00  0.00  0.00  0.00  0.00  0.00
  oSMyrtle8               1.00   1.00  0.00  0.00  0.00  0.00  0.00  0.00  0.00  0.00
  oSMyrtle9               1.07   1.00  0.00  0.00  0.00  0.00  0.00  0.00  0.00  0.00
  oSMyrtle10              1.00   1.00  0.00  0.00  0.00  0.00  0.00  0.00  0.00  0.00
  oTurner2                1.28   1.00  0.00  0.00  0.00  0.00  0.00  0.00  0.00  0.00
  o2Turner1               1.00   1.00  0.00  0.00  0.00  0.00  0.00  0.00  0.00  0.00
  oProspct12              1.00   1.00  0.00  0.00  0.00  0.00  0.00  0.00  0.00  0.00
  oChestnut1              1.00   1.00  0.00  0.00  0.00  0.00  0.00  0.00  0.00  0.00
  oChestnut2              1.00   1.00  0.00  0.00  0.00  0.00  0.00  0.00  0.00  0.00
  oChestnut3              1.00   1.00  0.00  0.00  0.00  0.00  0.00  0.00  0.00  0.00
  oProspct11              1.00   1.00  0.00  0.00  0.00  0.00  0.00  0.00  0.00  0.00
  oProspct10              1.00   1.00  0.00  0.00  0.00  0.00  0.00  0.00  0.00  0.00
  oCourt1                 1.00   1.00  0.00  0.00  0.00  0.00  0.00  0.00  0.00  0.00
  oChestnut5              1.00   1.00  0.00  0.00  0.00  0.00  0.00  0.00  0.00  0.00
  oSMyrtle14              1.00   1.00  0.00  0.00  0.00  0.00  0.00  0.00  0.00  0.00
  oSMyrtle13              1.00   1.00  0.00  0.00  0.00  0.00  0.00  0.00  0.00  0.00
  oChestnut7              1.00   1.00  0.00  0.00  0.00  0.00  0.00  0.00  0.00  0.00
  oChestnut8              1.00   1.00  0.00  0.00  0.00  0.00  0.00  0.00  0.00  0.00
  oChestnut9              1.00   1.00  0.00  0.00  0.00  0.00  0.00  0.00  0.00  0.00
  oChestnt10              1.00   1.00  0.00  0.00  0.00  0.00  0.00  0.00  0.00  0.00
  o3Prspct10              1.00   1.00  0.00  0.00  0.00  0.00  0.00  0.00  0.00  0.00
  oCleland3               1.00   1.00  0.00  0.00  0.00  0.00  0.00  0.00  0.00  0.00
  oChestnt13              1.00   1.00  0.00  0.00  0.00  0.00  0.00  0.00  0.00  0.00
  oChestnt14              1.10   1.00  0.00  0.00  0.00  0.00  0.00  0.00  0.00  0.00
  oChestnt15              1.00   1.00  0.00  0.00  0.00  0.00  0.00  0.00  0.00  0.00
  oSGarden2               1.00   1.00  0.00  0.00  0.00  0.00  0.00  0.00  0.00  0.00
  oSGarden3               1.00   1.00  0.00  0.00  0.00  0.00  0.00  0.00  0.00  0.00
  oSGarden4               1.00   1.00  0.00  0.00  0.00  0.00  0.00  0.00  0.00  0.00
  oCourt11                1.00   1.00  0.00  0.00  0.00  0.00  0.00  0.00  0.00  0.00
  oCourt15                1.00   1.00  0.00  0.00  0.00  0.00  0.00  0.00  0.00  0.00
  oCourt16                1.00   1.00  0.00  0.00  0.00  0.00  0.00  0.00  0.00  0.00
  oCourt17                1.00   1.00  0.00  0.00  0.00  0.00  0.00  0.00  0.00  0.00
  oFrank1                 1.00   1.00  0.00  0.00  0.00  0.00  0.00  0.00  0.00  0.00
  oProspect9              1.00   1.00  0.00  0.00  0.00  0.00  0.00  0.00  0.00  0.00
  oPierce18               1.00   1.00  0.00  0.00  0.00  0.00  0.00  0.00  0.00  0.00
  oPierce19               1.00   1.00  0.00  0.00  0.00  0.00  0.00  0.00  0.00  0.00
  oGrnwood5               1.00   1.00  0.00  0.00  0.00  0.00  0.00  0.00  0.00  0.00
  oWashing2               1.00   1.00  0.00  0.00  0.00  0.00  0.00  0.00  0.00  0.00
  oGrnwood3               1.00   1.00  0.00  0.00  0.00  0.00  0.00  0.00  0.00  0.00
  oGrnwood2               1.00   1.00  0.00  0.00  0.00  0.00  0.00  0.00  0.00  0.00
  oGrnwood1               1.00   1.00  0.00  0.00  0.00  0.00  0.00  0.00  0.00  0.00
  oWashing1               1.00   1.00  0.00  0.00  0.00  0.00  0.00  0.00  0.00  0.00
  oPierce10               1.00   1.00  0.00  0.00  0.00  0.00  0.00  0.00  0.00  0.00
  oPierce7                1.06   1.00  0.00  0.00  0.00  0.00  0.00  0.00  0.00  0.00
  oPierce6                1.00   1.00  0.00  0.00  0.00  0.00  0.00  0.00  0.00  0.00
  oCleland1               1.00   1.00  0.00  0.00  0.00  0.00  0.00  0.00  0.00  0.00
  oCleland2               1.00   1.00  0.00  0.00  0.00  0.00  0.00  0.00  0.00  0.00
  oNMyrtle1               1.00   1.00  0.00  0.00  0.00  0.00  0.00  0.00  0.00  0.00
  oCleland4               1.00   1.00  0.00  0.00  0.00  0.00  0.00  0.00  0.00  0.00
  oSMyrtle22              1.00   1.00  0.00  0.00  0.00  0.00  0.00  0.00  0.00  0.00
  oNGarden3               1.00   1.00  0.00  0.00  0.00  0.00  0.00  0.00  0.00  0.00
  oNGarden2               1.00   1.00  0.00  0.00  0.00  0.00  0.00  0.00  0.00  0.00
  oSGarden8               1.00   1.00  0.00  0.00  0.00  0.00  0.00  0.00  0.00  0.00
  oAltUS19_2              1.00   1.00  0.00  0.00  0.00  0.00  0.00  0.00  0.00  0.00
  oPierce17               1.00   1.00  0.00  0.00  0.00  0.00  0.00  0.00  0.00  0.00
  oSGarden7               1.00   1.00  0.00  0.00  0.00  0.00  0.00  0.00  0.00  0.00
  oSGarden6               1.00   1.00  0.00  0.00  0.00  0.00  0.00  0.00  0.00  0.00
  oNMyrtle3               1.00   1.00  0.00  0.00  0.00  0.00  0.00  0.00  0.00  0.00
  oNMyrtle2               1.00   1.00  0.00  0.00  0.00  0.00  0.00  0.00  0.00  0.00
  o2Washing1              1.00   1.00  0.00  0.00  0.00  0.00  0.00  0.00  0.00  0.00
  oNGarden1               1.00   1.00  0.00  0.00  0.00  0.00  0.00  0.00  0.00  0.00
  oPierce15               1.00   1.00  0.00  0.00  0.00  0.00  0.00  0.00  0.00  0.00
  oFrank2                 1.00   1.00  0.00  0.00  0.00  0.00  0.00  0.00  0.00  0.00
  oFrank3                 1.00   1.00  0.00  0.00  0.00  0.00  0.00  0.00  0.00  0.00
  o2Pierce15              1.00   1.00  0.00  0.00  0.00  0.00  0.00  0.00  0.00  0.00
  oPierce14               1.00   1.00  0.00  0.00  0.00  0.00  0.00  0.00  0.00  0.00
  oPierce13               1.00   1.00  0.00  0.00  0.00  0.00  0.00  0.00  0.00  0.00
  oBay1                   1.00   1.00  0.00  0.00  0.00  0.00  0.00  0.00  0.00  0.00
  oProspect4              1.00   1.00  0.00  0.00  0.00  0.00  0.00  0.00  0.00  0.00
  oProspect2              1.00   1.00  0.00  0.00  0.00  0.00  0.00  0.00  0.00  0.00
  oProspect1              1.00   1.00  0.00  0.00  0.00  0.00  0.00  0.00  0.00  0.00
  oProspect6              1.00   1.00  0.00  0.00  0.00  0.00  0.00  0.00  0.00  0.00
  oPierce11               1.00   1.00  0.00  0.00  0.00  0.00  0.00  0.00  0.00  0.00
  oSMyrtle18              1.00   1.00  0.00  0.00  0.00  0.00  0.00  0.00  0.00  0.00
  oSMyrtle21              1.00   1.00  0.00  0.00  0.00  0.00  0.00  0.00  0.00  0.00
  oSMyrtle20              1.00   1.00  0.00  0.00  0.00  0.00  0.00  0.00  0.00  0.00
  o2SMyrtl18              1.00   1.00  0.00  0.00  0.00  0.00  0.00  0.00  0.00  0.00
  o2SGarden6              1.00   1.00  0.00  0.00  0.00  0.00  0.00  0.00  0.00  0.00
  oPierce5                1.58   1.00  0.00  0.00  0.00  0.00  0.00  0.00  0.00  0.00
  o2SMyrtl21              1.00   1.00  0.00  0.00  0.00  0.00  0.00  0.00  0.00  0.00
  oJasmine1               1.00   1.00  0.00  0.00  0.00  0.00  0.00  0.00  0.00  0.00
  o2Prspct14              1.00   1.00  0.00  0.00  0.00  0.00  0.00  0.00  0.00  0.00
  o2Prspct13              1.00   1.00  0.00  0.00  0.00  0.00  0.00  0.00  0.00  0.00
  oSMyrtle15              1.00   1.00  0.00  0.00  0.00  0.00  0.00  0.00  0.00  0.00
  oPierce20               1.00   1.00  0.00  0.00  0.00  0.00  0.00  0.00  0.00  0.00
  o2AltUS192              1.00   1.00  0.00  0.00  0.00  0.00  0.00  0.00  0.00  0.00
  o2Frank2                1.00   1.00  0.00  0.00  0.00  0.00  0.00  0.00  0.00  0.00
  oSMyrtle17              1.00   1.00  0.00  0.00  0.00  0.00  0.00  0.00  0.00  0.00
  o2Prospct1              1.00   1.00  0.00  0.00  0.00  0.00  0.00  0.00  0.00  0.00
  o2Grnwood1              1.00   1.00  0.00  0.00  0.00  0.00  0.00  0.00  0.00  0.00
  o2Grnwood3              1.00   1.00  0.00  0.00  0.00  0.00  0.00  0.00  0.00  0.00
  oTownPond1              1.00   1.00  0.00  0.00  0.00  0.00  0.00  0.00  0.00  0.00
  oTownPond3              1.36   1.00  0.00  0.00  0.00  0.00  0.00  0.00  0.00  0.00
  oTownPond4              1.14   1.00  0.00  0.00  0.00  0.00  0.00  0.00  0.00  0.00
  oPinellas1              1.45   1.00  0.00  0.00  0.00  0.00  0.00  0.00  0.00  0.00
  oPinellas2              1.00   1.00  0.00  0.00  0.00  0.00  0.00  0.00  0.00  0.00
  
  
  *************************
  Conduit Surcharge Summary
  *************************
  
  ----------------------------------------------------------------------------
                                                           Hours        Hours 
                         --------- Hours Full --------   Above Full   Capacity
  Conduit                Both Ends  Upstream  Dnstream   Normal Flow   Limited
  ----------------------------------------------------------------------------
  cBLTrail5a                  0.01      0.01      0.24      0.01         0.01
  cBLTrail5b                  0.01      0.01      0.24      0.01         0.01
  cDrew4                      0.01      0.01      0.24      0.01         0.01
  cJones1                     0.01      0.01      2.00      0.01         0.01
  cSMyrtle2                   0.01      0.01      0.14      0.01         0.01
  cSMyrtle3                   0.01      0.12      0.01      0.21         0.01
  cPierce18                   0.01      0.01      0.01      0.12         0.01
  cPierce19                   0.01      0.01      1.96      0.01         0.01
  cPierce20                   2.00      2.00      2.00      0.01         0.01
  cAltUS19_2                  0.01      0.01      0.01      0.09         0.01
  cNGarden3                   0.01      0.01      0.17      0.01         0.01
  cNGarden2                   0.01      0.22      0.01      0.41         0.01
  cNGarden1                   0.01      0.16      0.01      0.49         0.01
  cSGarden8                   0.01      0.01      0.18      0.01         0.01
  cSGarden6                   0.01      0.01      0.01      0.10         0.01
  cSGarden3                   0.01      0.01      0.01      0.15         0.01
  cChestnut13                 0.01      0.01      0.01      0.13         0.01
  cCourt5                     0.01      0.01      0.01      0.34         0.01
  cCourt8                     0.01      0.01      0.01      0.36         0.01
  cCourt11a                   0.01      0.01      0.01      0.14         0.01
  cCourt12                    0.06      0.06      0.12      0.01         0.01
  cCourt13                    0.01      0.01      0.15      0.01         0.01
  cCourt14                    0.01      0.01      0.05      0.01         0.01
  cCourt15                    0.01      0.12      0.01      0.31         0.01
  cTurner6                    0.01      0.01      2.00      0.01         0.01
  cJasmine2                   0.01      0.01      1.31      0.01         0.01
  cJeffords1                  0.07      0.07      0.18      0.01         0.01
  cLotus1                     0.01      0.08      0.01      0.14         0.01
  cCourt11b                   0.01      0.21      0.01      0.37         0.01
  cTP_10                      2.00      2.00      2.00      0.01         0.01
  cTP_Pierce1                 2.00      2.00      2.00      0.01         0.01
  cTP_Pierce6                 0.01      0.09      0.01      0.35         0.01
  

  Analysis begun on:  Tue Jun 23 21:22:05 2026
  Analysis ended on:  Tue Jun 23 21:22:06 2026
  Total elapsed time: 00:00:01