
  EPA STORM WATER MANAGEMENT MODEL - VERSION 5.2 (Build 5.2.4)
  ------------------------------------------------------------

  WARNING 03: negative offset ignored for Link WWGM0210
  WARNING 03: negative offset ignored for Link WWGM0317
  WARNING 04: minimum elevation drop used for Conduit WWGM0354
  WARNING 03: negative offset ignored for Link WWGM0372
  WARNING 03: negative offset ignored for Link WWGM0482
  WARNING 03: negative offset ignored for Link WWGM0601
  WARNING 03: negative offset ignored for Link WWGM0993
  WARNING 03: negative offset ignored for Link WWGM0998
  WARNING 03: negative offset ignored for Link WWGM1051
  WARNING 03: negative offset ignored for Link WWGM1114
  WARNING 03: negative offset ignored for Link WWGM1164
  WARNING 03: negative offset ignored for Link WWGM1242
  WARNING 03: negative offset ignored for Link WWGM1252
  WARNING 03: negative offset ignored for Link WWGM1304
  WARNING 03: negative offset ignored for Link WWGM1313
  WARNING 03: negative offset ignored for Link WWGM1380
  WARNING 03: negative offset ignored for Link WWGM1464
  WARNING 03: negative offset ignored for Link WWGM1645
  WARNING 03: negative offset ignored for Link WWGM1742
  WARNING 03: negative offset ignored for Link WWGM1742
  WARNING 03: negative offset ignored for Link WWGM1756
  WARNING 03: negative offset ignored for Link WWGM1770
  WARNING 03: negative offset ignored for Link WWGM1796
  WARNING 03: negative offset ignored for Link WWGM1798
  WARNING 03: negative offset ignored for Link WWGM2039
  WARNING 03: negative offset ignored for Link WWGM2039
  WARNING 02: maximum depth increased for Node J-150_CREEKSD
  
  ****************
  Analysis Options
  ****************
  Flow Units ............... GPM
  Process Models:
    Rainfall/Runoff ........ YES
    RDII ................... NO
    Snowmelt ............... NO
    Groundwater ............ NO
    Flow Routing ........... YES
    Ponding Allowed ........ YES
    Water Quality .......... NO
  Infiltration Method ...... HORTON
  Flow Routing Method ...... DYNWAVE
  Surcharge Method ......... EXTRAN
  Starting Date ............ 02/01/2017 00:00:00
  Ending Date .............. 02/06/2017 03:00:00
  Antecedent Dry Days ...... 5.0
  Report Time Step ......... 00:05:00
  Wet Time Step ............ 00:05:00
  Dry Time Step ............ 01:00:00
  Routing Time Step ........ 30.00 sec
  Variable Time Step ....... YES
  Maximum Trials ........... 8
  Number of Threads ........ 1
  Head Tolerance ........... 0.005000 ft
  
  
  **************************        Volume         Depth
  Runoff Quantity Continuity     acre-feet        inches
  **************************     ---------       -------
  Total Precipitation ......   6588833.550         2.600
  Evaporation Loss .........         0.000         0.000
  Infiltration Loss ........   1317766.710         0.520
  Surface Runoff ...........         2.719         0.000
  Final Storage ............   5271064.130         2.080
  Continuity Error (%) .....        -0.000
  
  
  **************************        Volume        Volume
  Flow Routing Continuity        acre-feet      10^6 gal
  **************************     ---------     ---------
  Dry Weather Inflow .......         5.128         1.671
  Wet Weather Inflow .......         2.709         0.883
  Groundwater Inflow .......         0.000         0.000
  RDII Inflow ..............         0.000         0.000
  External Inflow ..........         0.000         0.000
  External Outflow .........         5.994         1.953
  Flooding Loss ............         0.827         0.270
  Evaporation Loss .........         0.000         0.000
  Exfiltration Loss ........         0.000         0.000
  Initial Stored Volume ....         0.000         0.000
  Final Stored Volume ......         0.848         0.276
  Continuity Error (%) .....         2.131
  
  
  *************************
  Highest Continuity Errors
  *************************
  Node WWMF118001 (-6634.83%)
  Node WWMG136051 (100.00%)
  Node WWMG136097 (100.00%)
  Node WWMF118002 (99.38%)
  Node WWMH136250 (97.28%)
  
  
  ***************************
  Time-Step Critical Elements
  ***************************
  Link WWGM2078 (53.12%)
  Link WWGM1792 (20.36%)
  Link WWGM1642 (15.92%)
  Link WWGM1254 (2.50%)
  Link WWGM1319 (2.07%)
  
  
  ********************************
  Highest Flow Instability Indexes
  ********************************
  Link WWGM0167 (124)
  Link WWGM2110 (106)
  Link WWGM0168 (89)
  Link WWGM0379 (88)
  Link WWGM1463 (87)
  
  
  *********************************
  Most Frequent Nonconverging Nodes
  *********************************
  Node OF-3 (86.80%)
  Node J-120_ANDR (86.33%)
  Node J-160_DAY (6.63%)
  Node WWMH141005 (2.00%)
  Node J-130_CHAR (1.45%)
  
  
  *************************
  Routing Time Step Summary
  *************************
  Minimum Time Step           :     0.31 sec
  Average Time Step           :     9.29 sec
  Maximum Time Step           :    30.00 sec
  % of Time in Steady State   :     0.00
  Average Iterations per Step :     7.31
  % of Steps Not Converging   :    86.80
  Time Step Frequencies       :
     30.000 -  3.817 sec      :    98.82 %
      3.817 -  0.486 sec      :     1.16 %
      0.486 -  0.062 sec      :     0.01 %
      0.062 -  0.008 sec      :     0.00 %
      0.008 -  0.001 sec      :     0.00 %
  
  
  ***************************
  Subcatchment Runoff Summary
  ***************************
  
  ------------------------------------------------------------------------------------------------------------------------------
                            Total      Total      Total      Total     Imperv       Perv      Total       Total     Peak  Runoff
                           Precip      Runon       Evap      Infil     Runoff     Runoff     Runoff      Runoff   Runoff   Coeff
  Subcatchment                 in         in         in         in         in         in         in    10^6 gal      GPM
  ------------------------------------------------------------------------------------------------------------------------------
  0                          2.60       0.00       0.00       0.52       0.00       0.00       0.00        0.89  1241.12   0.000
  
  
  ******************
  Node Depth Summary
  ******************
  
  ---------------------------------------------------------------------------------
                                 Average  Maximum  Maximum  Time of Max    Reported
                                   Depth    Depth      HGL   Occurrence   Max Depth
  Node                 Type         Feet     Feet     Feet  days hr:min        Feet
  ---------------------------------------------------------------------------------
  J-100                JUNCTION     0.07     0.17   163.97     4  07:58        0.17
  J-110                JUNCTION     0.00     0.00   159.72     0  00:00        0.00
  J-120_ANDR           JUNCTION    20.71    50.26   187.86     1  09:43       47.35
  J-130_CHAR           JUNCTION    13.41    46.77   187.12     2  07:47       45.52
  J-140_CHEHAL         JUNCTION    29.91    69.00   246.10     1  05:08       63.83
  J-150_CREEKSD        JUNCTION    11.34    32.54   193.14     3  05:31       29.52
  J-160_DAY            JUNCTION    49.30    61.60   163.50     1  05:20       61.60
  J-170_FERN1          JUNCTION    44.44    77.00   190.60     0  19:01       77.00
  J-190_HWY240_1       JUNCTION    33.45    72.00   215.00     1  15:11       62.94
  J-210_SHER1          JUNCTION     0.00     0.00   132.60     0  00:00        0.00
  J-230_CHEHAL_BASEFLOW JUNCTION     0.07     0.10   186.19     0  07:32        0.10
  J-240_CREEK_BASEFLOW JUNCTION     0.03     0.03   166.00     4  07:23        0.03
  J-250_SHER_BASEFLOW  JUNCTION     0.02     0.03   138.79     3  07:58        0.03
  J-260_CHAR_BASEFLOW  JUNCTION     0.02     0.03   146.95     2  07:14        0.03
  J-270_ANDR_BASEFLOW  JUNCTION     0.04     0.05   143.71     0  07:16        0.05
  WWMF109000           JUNCTION     0.09     0.29   167.49     4  07:46        0.28
  WWMF109001           JUNCTION     0.06     0.19   167.95     4  07:45        0.19
  WWMF109002           JUNCTION     0.23     0.56   168.95     4  07:44        0.56
  WWMF109003           JUNCTION     0.14     0.43   169.45     4  07:43        0.42
  WWMF109004           JUNCTION     0.10     0.35   171.88     4  07:42        0.31
  WWMF109005           JUNCTION     0.08     0.10   173.71     3  08:00        0.10
  WWMF109006           JUNCTION     0.07     0.09   176.08     3  08:00        0.09
  WWMF109040           JUNCTION     0.00     0.00   174.77     0  00:00        0.00
  WWMF109150           JUNCTION     0.10     0.33   168.54     4  07:45        0.33
  WWMF109153           JUNCTION     0.11     0.34   166.89     4  07:47        0.32
  WWMF117018           JUNCTION     0.09     0.09   157.59     2  01:59        0.09
  WWMF117019           JUNCTION     0.04     0.04   158.63     1  03:05        0.04
  WWMF117020           JUNCTION     0.05     0.05   159.78     1  03:32        0.05
  WWMF117021           JUNCTION     0.02     0.02   160.68     1  03:30        0.02
  WWMF117022           JUNCTION     0.00     0.00   161.98     0  00:00        0.00
  WWMF117023           JUNCTION     0.00     0.00   163.21     0  00:00        0.00
  WWMF117024           JUNCTION     0.00     0.00   163.58     0  00:00        0.00
  WWMF117025           JUNCTION     0.11     0.27   164.68     4  07:58        0.27
  WWMF117026           JUNCTION     0.14     0.32   165.09     4  07:57        0.32
  WWMF117027           JUNCTION     0.33     0.58   165.51     4  07:54        0.58
  WWMF117028           JUNCTION     0.09     0.27   165.77     4  07:50        0.27
  WWMF118001           JUNCTION     0.00     0.02   165.45     4  04:10        0.02
  WWMF118002           JUNCTION     4.63     5.97   165.72     2  00:42        5.95
  WWMF118003           JUNCTION     0.07     0.08   170.52     3  07:59        0.08
  WWMF118023           JUNCTION     0.01     0.01   169.66     0  08:00        0.01
  WWMF118024           JUNCTION     0.01     0.01   167.54     0  08:01        0.01
  WWMF118025           JUNCTION     0.03     0.07   166.32     4  07:50        0.07
  WWMF118026           JUNCTION     0.28     0.57   166.32     4  07:49        0.57
  WWMF118048           JUNCTION     0.16     0.33   155.32     4  08:00        0.33
  WWMF118049           JUNCTION     0.06     0.13   162.30     4  07:59        0.13
  WWMF118050           JUNCTION     0.09     0.23   163.21     4  07:59        0.23
  WWMF127007           JUNCTION     0.07     0.08   148.65     1  16:48        0.08
  WWMF127008           JUNCTION     0.08     0.10   149.17     2  16:58        0.10
  WWMF127009           JUNCTION     3.68     3.89   149.17     2  16:58        3.89
  WWMF127010           JUNCTION     0.06     0.08   150.22     0  17:08        0.07
  WWMF127011           JUNCTION     0.07     0.10   151.00     0  17:06        0.10
  WWMF127012           JUNCTION     0.07     0.11   152.01     1  16:30        0.11
  WWMF127013           JUNCTION     0.94     0.98   153.20     0  15:27        0.97
  WWMF127014           JUNCTION     0.21     0.24   153.20     0  16:52        0.24
  WWMF127015           JUNCTION     0.06     0.07   153.67     0  04:33        0.07
  WWMF127016           JUNCTION     0.02     0.02   154.83     1  03:51        0.02
  WWMF127017           JUNCTION     0.05     0.05   156.22     1  03:32        0.05
  WWMF127044           JUNCTION     0.02     0.02   157.18     0  00:15        0.02
  WWMF127115           JUNCTION     0.04     0.04   167.54     3  17:03        0.04
  WWMF127116           JUNCTION     0.07     0.07   168.30     4  03:22        0.07
  WWMF127117           JUNCTION     0.24     0.24   168.87     2  04:30        0.24
  WWMF127118           JUNCTION     0.18     0.18   169.14     1  03:51        0.18
  WWMF127119           JUNCTION     0.05     0.05   170.45     0  00:10        0.05
  WWMF127203           JUNCTION     0.07     0.07   169.73     2  01:44        0.07
  WWMF127220           JUNCTION     0.06     0.06   170.40     2  01:30        0.06
  WWMF137001           JUNCTION     0.03     0.03   125.99     1  15:55        0.03
  WWMF137002           JUNCTION     0.03     0.04   132.93     1  15:54        0.04
  WWMF137003           JUNCTION     0.04     0.04   144.98     1  15:54        0.04
  WWMF137004           JUNCTION     0.06     0.07   147.07     1  15:52        0.07
  WWMF137005           JUNCTION     0.13     0.15   147.47     1  15:50        0.15
  WWMF137006           JUNCTION     0.07     0.08   148.14     2  17:08        0.08
  WWMF137072           JUNCTION     0.03     0.04   109.80     1  15:55        0.04
  WWMF79028            JUNCTION     1.44     1.75   218.03     2  04:01        1.58
  WWMF79029            JUNCTION     0.02     0.05   220.34     4  04:03        0.04
  WWMF79030            JUNCTION     3.24     3.45   220.65     1  01:22        3.42
  WWMF79031            JUNCTION     1.53     1.73   220.70     0  23:29        1.65
  WWMF89019            JUNCTION     0.07     0.09   199.25     4  08:00        0.09
  WWMF89020            JUNCTION     0.04     0.05   200.23     4  07:59        0.05
  WWMF89021            JUNCTION     0.06     0.08   201.30     4  07:59        0.08
  WWMF89022            JUNCTION     0.11     0.14   201.74     4  07:58        0.14
  WWMF89023            JUNCTION     0.05     0.06   205.36     3  07:38        0.06
  WWMF89024            JUNCTION     0.05     0.06   208.25     1  07:49        0.06
  WWMF89025            JUNCTION     0.04     0.05   212.50     1  07:48        0.05
  WWMF89026            JUNCTION     0.03     0.04   213.78     0  23:30        0.04
  WWMF89027            JUNCTION     0.03     0.04   217.59     0  23:30        0.04
  WWMF89160            JUNCTION     0.06     0.07   204.34     4  07:55        0.07
  WWMF99007            JUNCTION     0.09     0.12   177.99     3  08:00        0.12
  WWMF99008            JUNCTION     0.09     0.12   178.43     3  08:00        0.12
  WWMF99009            JUNCTION     0.09     0.11   179.37     3  08:00        0.11
  WWMF99011            JUNCTION     0.09     0.11   180.45     3  08:00        0.11
  WWMF99012            JUNCTION     0.09     0.11   180.69     3  08:00        0.11
  WWMF99013            JUNCTION     0.05     0.06   186.14     3  08:00        0.06
  WWMF99014            JUNCTION     0.06     0.08   188.40     4  08:00        0.08
  WWMF99015            JUNCTION     0.07     0.09   189.33     4  08:00        0.09
  WWMF99016            JUNCTION     0.06     0.08   190.59     4  08:00        0.08
  WWMF99017            JUNCTION     0.06     0.08   191.33     4  08:00        0.08
  WWMF99018            JUNCTION     0.06     0.07   193.01     4  08:00        0.07
  WWMF99152            JUNCTION     0.06     0.08   195.65     4  08:00        0.08
  WWMG108005           JUNCTION     0.01     0.02   177.10     0  07:40        0.02
  WWMG108006           JUNCTION     0.03     0.03   178.46     0  07:34        0.03
  WWMG108007           JUNCTION     0.03     0.04   178.64     4  08:00        0.04
  WWMG108008           JUNCTION     0.34     0.37   180.18     3  08:00        0.37
  WWMG108009           JUNCTION     0.07     0.09   180.89     0  08:00        0.09
  WWMG108010           JUNCTION     0.06     0.08   181.84     0  08:00        0.08
  WWMG108011           JUNCTION     0.30     0.33   181.86     0  08:00        0.33
  WWMG108080           JUNCTION     0.09     0.32   179.73     3  09:47        0.31
  WWMG109046           JUNCTION     1.05     1.42   180.49     3  09:46        1.42
  WWMG109047           JUNCTION     0.09     0.46   180.80     3  09:41        0.45
  WWMG109048           JUNCTION     0.90     1.36   182.48     3  09:39        1.36
  WWMG109049           JUNCTION     0.31     0.93   182.95     3  09:36        0.92
  WWMG109050           JUNCTION     0.05     0.39   186.39     3  09:32        0.39
  WWMG109051           JUNCTION     0.06     0.43   189.40     3  09:32        0.43
  WWMG114000           JUNCTION     0.09     0.10   135.61     0  11:02        0.10
  WWMG114001           JUNCTION     0.00     0.00   194.41     0  00:00        0.00
  WWMG114002           JUNCTION     5.59     6.22   145.10     1  03:51        6.10
  WWMG116235           JUNCTION     0.16     0.85   173.40     4  07:06        0.82
  WWMG116236           JUNCTION     0.17     0.93   174.20     4  07:05        0.93
  WWMG116237           JUNCTION     0.17     0.98   174.97     4  07:03        0.97
  WWMG116238           JUNCTION     0.05     0.37   175.16     4  07:02        0.37
  WWMG116239           JUNCTION     0.15     1.02   176.13     4  07:02        1.02
  WWMG116240           JUNCTION     0.13     0.98   177.24     4  07:01        0.95
  WWMG116241           JUNCTION     0.19     1.13   177.69     1  07:32        1.13
  WWMG117195           JUNCTION     0.19     1.29   178.15     1  07:32        1.28
  WWMG118004           JUNCTION     0.01     0.02   174.37     0  07:45        0.02
  WWMG118086           JUNCTION     0.14     0.46   178.47     3  09:51        0.45
  WWMG118104           JUNCTION     0.00     0.37   185.01     2  09:30        0.36
  WWMG123072           JUNCTION     0.23     0.83   121.84     4  23:56        0.83
  WWMG123073           JUNCTION     0.22     0.80   123.08     4  23:56        0.80
  WWMG123074           JUNCTION     0.28     0.94   123.68     4  23:47        0.94
  WWMG123075           JUNCTION     0.08     0.09   125.21     4  11:06        0.09
  WWMG123076           JUNCTION     0.12     0.13   125.49     0  11:05        0.13
  WWMG123077           JUNCTION     0.11     0.12   126.01     0  11:04        0.12
  WWMG123078           JUNCTION     0.06     0.07   132.78     0  11:03        0.07
  WWMG123079           JUNCTION     0.08     0.09   135.10     0  11:03        0.09
  WWMG126098           JUNCTION     0.28     0.29   163.83     2  02:29        0.29
  WWMG126102           JUNCTION     0.06     0.07   164.47     1  01:02        0.07
  WWMG126147           JUNCTION     0.00     0.00   174.04     0  00:00        0.00
  WWMG126164           JUNCTION     0.00     0.00   180.00     1  16:00        0.00
  WWMG126200           JUNCTION     0.30     0.33   165.13     1  01:01        0.33
  WWMG126236           JUNCTION     0.12     0.57   159.15     4  07:14        0.56
  WWMG126237           JUNCTION     0.08     0.41   166.18     4  07:12        0.40
  WWMG126238           JUNCTION     3.41     4.14   166.42     3  20:43        4.10
  WWMG126239           JUNCTION     1.81     2.57   166.51     3  20:44        2.56
  WWMG126240           JUNCTION     0.21     0.84   166.50     4  07:10        0.83
  WWMG126241           JUNCTION     0.11     0.53   168.75     4  07:09        0.53
  WWMG126242           JUNCTION     0.09     0.45   172.09     4  07:09        0.45
  WWMG126243           JUNCTION     0.23     0.96   172.79     4  07:08        0.94
  WWMG127109           JUNCTION     1.24     1.30   165.13     4  22:46        1.30
  WWMG127110           JUNCTION     0.82     0.87   165.13     4  06:15        0.87
  WWMG127114           JUNCTION     0.05     0.05   165.74     0  06:38        0.05
  WWMG127133           JUNCTION     0.03     0.03   168.66     0  00:59        0.03
  WWMG127188           JUNCTION     0.13     0.14   163.89     2  02:17        0.14
  WWMG127195           JUNCTION     0.13     0.62   166.98     4  07:10        0.62
  WWMG136015           JUNCTION     0.14     0.39   154.07     2  10:01        0.39
  WWMG136016           JUNCTION     0.94     1.35   156.40     2  09:59        1.35
  WWMG136017           JUNCTION     0.27     0.70   156.52     2  09:51        0.68
  WWMG136018           JUNCTION     0.18     0.69   157.08     4  07:17        0.67
  WWMG136019           JUNCTION     0.25     0.81   157.66     4  07:16        0.79
  WWMG136020           JUNCTION     1.79     2.22   156.41     2  10:00        2.22
  WWMG136021           JUNCTION     0.03     0.03   158.71     1  16:18        0.03
  WWMG136035           JUNCTION     0.04     0.20   157.65     2  06:38        0.19
  WWMG136036           JUNCTION     0.05     0.27   158.63     2  06:35        0.26
  WWMG136037           JUNCTION     0.07     0.38   159.66     2  06:35        0.38
  WWMG136038           JUNCTION     0.04     0.23   160.29     3  09:51        0.23
  WWMG136039           JUNCTION     0.03     0.30   161.52     3  09:47        0.26
  WWMG136050           JUNCTION     0.04     0.04   155.73     2  04:48        0.04
  WWMG136051           JUNCTION     0.72     1.14   157.39     5  03:00        1.14
  WWMG136053           JUNCTION     0.02     0.02   157.76     1  03:53        0.02
  WWMG136054           JUNCTION     0.02     0.02   158.97     2  04:54        0.02
  WWMG136064           JUNCTION     0.07     0.08   160.05     2  03:01        0.08
  WWMG136065           JUNCTION     0.12     0.12   160.51     2  02:58        0.12
  WWMG136066           JUNCTION     0.09     0.09   160.88     2  02:50        0.09
  WWMG136067           JUNCTION     0.07     0.08   161.53     2  02:44        0.08
  WWMG136068           JUNCTION     0.08     0.09   162.19     2  02:37        0.09
  WWMG136069           JUNCTION     0.41     0.41   162.37     2  02:36        0.41
  WWMG136070           JUNCTION     0.12     0.13   162.73     2  02:35        0.13
  WWMG136074           JUNCTION     0.03     0.03   164.34     2  04:49        0.03
  WWMG136095           JUNCTION     0.03     0.03   162.56     0  00:29        0.03
  WWMG136097           JUNCTION     0.28     0.47   160.97     5  03:00        0.47
  WWMG136100           JUNCTION     0.00     0.00   163.12     0  00:00        0.00
  WWMG136254           JUNCTION     0.01     0.01   159.76     0  00:18        0.01
  WWMG136260           JUNCTION     0.27     0.82   157.75     4  07:14        0.82
  WWMG137106           JUNCTION     0.04     0.04   161.93     2  00:50        0.04
  WWMG137107           JUNCTION     0.03     0.03   162.77     4  04:07        0.03
  WWMG137183           JUNCTION     0.03     0.03   163.11     3  04:18        0.03
  WWMG137193           JUNCTION     0.09     0.32   157.39     5  03:00        0.32
  WWMG137194           JUNCTION     0.09     0.37   158.40     2  06:37        0.36
  WWMG137195           JUNCTION     0.16     0.50   158.83     2  06:35        0.50
  WWMG146012           JUNCTION     0.24     0.40   152.48     2  10:10        0.40
  WWMG146013           JUNCTION     0.01     0.01   152.55     0  01:57        0.01
  WWMG146014           JUNCTION     1.27     1.55   153.18     2  10:02        1.54
  WWMG146025           JUNCTION     0.02     0.02   155.06     0  01:47        0.02
  WWMG146075           JUNCTION     0.07     0.21   152.89     2  10:02        0.20
  WWMG146076           JUNCTION     0.98     1.34   152.47     2  10:06        1.34
  WWMG146077           JUNCTION     0.22     0.51   150.87     2  10:10        0.51
  WWMG146078           JUNCTION     0.01     0.01   154.75     3  04:48        0.01
  WWMG146079           JUNCTION     0.15     0.40   150.10     2  10:11        0.40
  WWMG79032            JUNCTION     2.29     2.54   220.75     0  23:29        2.42
  WWMG79033            JUNCTION     0.02     0.03   222.86     0  08:00        0.03
  WWMG79034            JUNCTION     0.03     0.03   224.72     0  08:00        0.03
  WWMG79195            JUNCTION     0.02     0.03   240.21     1  07:37        0.03
  WWMG79196            JUNCTION     0.13     0.16   240.36     2  07:24        0.16
  WWMG79244            JUNCTION     0.02     0.04   241.41     2  07:20        0.04
  WWMG79245            JUNCTION     0.03     0.05   242.10     2  05:10        0.05
  WWMG79246            JUNCTION     0.67     0.70   243.15     2  05:06        0.70
  WWMG89076            JUNCTION     0.07     0.07   218.90     0  07:33        0.07
  WWMG89185            JUNCTION     0.05     0.09   220.13     1  07:48        0.09
  WWMG89186            JUNCTION     0.08     0.14   220.64     1  07:47        0.14
  WWMG89187            JUNCTION     0.11     0.18   221.25     1  07:46        0.18
  WWMG89189            JUNCTION     0.08     0.14   222.34     1  07:44        0.14
  WWMG89192            JUNCTION     0.06     0.11   226.13     1  07:42        0.11
  WWMG89193            JUNCTION     0.05     0.09   228.11     1  07:40        0.09
  WWMG89194            JUNCTION     0.03     0.06   234.58     1  07:39        0.06
  WWMG89250            JUNCTION     0.00     0.94   221.34     2  17:08        0.85
  WWMG89258            JUNCTION     0.07     0.68   215.26     4  21:38        0.67
  WWMG89259            JUNCTION     0.07     0.71   217.08     4  21:37        0.69
  WWMG89260            JUNCTION     0.08     1.02   218.03     4  21:36        0.98
  WWMG89261            JUNCTION     0.07     0.13   218.10     1  07:49        0.13
  WWMG99099            JUNCTION     0.06     0.44   192.21     3  09:31        0.43
  WWMG99100            JUNCTION     0.05     0.38   197.53     3  09:30        0.37
  WWMG99101            JUNCTION     0.05     0.37   205.06     3  09:30        0.37
  WWMG99102            JUNCTION     0.06     0.45   208.95     3  09:29        0.44
  WWMG99104            JUNCTION     0.07     0.57   210.96     3  09:28        0.56
  WWMG99105            JUNCTION     0.07     0.62   213.18     3  09:27        0.61
  WWMH104008           JUNCTION     0.05     0.07   146.93     0  09:01        0.07
  WWMH104009           JUNCTION     0.05     0.07   148.36     0  09:00        0.07
  WWMH104010           JUNCTION     0.04     0.05   150.33     0  09:00        0.05
  WWMH104011           JUNCTION     0.08     0.11   150.88     0  09:00        0.11
  WWMH104012           JUNCTION     0.05     0.07   151.97     0  09:00        0.07
  WWMH104040           JUNCTION     0.03     0.03   209.87     0  11:00        0.03
  WWMH104041           JUNCTION     0.07     0.08   210.20     0  11:00        0.08
  WWMH104042           JUNCTION     0.05     0.05   211.42     0  11:00        0.05
  WWMH104043           JUNCTION     0.05     0.05   213.26     0  11:00        0.05
  WWMH104044           JUNCTION     0.04     0.04   214.90     0  11:00        0.04
  WWMH105001           JUNCTION     0.04     0.05   152.93     0  09:00        0.05
  WWMH105002           JUNCTION     0.04     0.05   155.47     0  09:00        0.05
  WWMH105003           JUNCTION     0.04     0.05   157.74     0  09:00        0.05
  WWMH105004           JUNCTION     0.03     0.04   160.04     0  09:00        0.04
  WWMH105005           JUNCTION     0.03     0.05   162.08     0  09:00        0.05
  WWMH105017           JUNCTION     0.02     0.03   163.34     0  09:00        0.03
  WWMH114003           JUNCTION     4.50     5.03   145.05     3  02:52        4.95
  WWMH114004           JUNCTION     6.47     6.92   144.94     0  15:51        6.92
  WWMH114005           JUNCTION     3.05     3.55   145.13     1  03:28        3.40
  WWMH114006           JUNCTION     1.49     1.93   145.21     1  03:28        1.70
  WWMH114007           JUNCTION     0.05     0.07   145.39     0  09:02        0.07
  WWMH114026           JUNCTION     0.07     0.08   145.89     0  11:00        0.08
  WWMH114027           JUNCTION     0.06     0.07   153.72     2  11:00        0.07
  WWMH114028           JUNCTION     0.06     0.07   174.92     0  11:00        0.07
  WWMH114029           JUNCTION     0.10     0.11   176.95     0  11:00        0.11
  WWMH114030           JUNCTION     0.10     0.11   177.94     2  11:00        0.11
  WWMH114031           JUNCTION     0.10     0.11   180.26     2  11:00        0.11
  WWMH114033           JUNCTION     0.03     0.04   190.88     0  11:15        0.04
  WWMH114035           JUNCTION     0.05     0.06   192.59     0  11:11        0.06
  WWMH114036           JUNCTION     0.05     0.06   193.16     0  11:00        0.06
  WWMH114037           JUNCTION     0.06     0.07   194.40     0  11:05        0.07
  WWMH114038           JUNCTION     0.03     0.04   201.84     0  11:02        0.04
  WWMH114039           JUNCTION     0.03     0.04   208.14     0  11:01        0.04
  WWMH114127           JUNCTION     0.07     0.08   142.38     0  11:01        0.08
  WWMH114140           JUNCTION     5.27     5.86   145.07     1  03:51        5.77
  WWMH123003           JUNCTION     0.03     0.04   157.36     0  12:00        0.04
  WWMH123004           JUNCTION     0.07     0.09   160.14     0  12:00        0.09
  WWMH123005           JUNCTION     0.07     0.09   163.12     0  12:00        0.09
  WWMH123006           JUNCTION     0.08     0.10   164.68     0  12:00        0.10
  WWMH123007           JUNCTION     0.06     0.08   167.15     0  12:00        0.08
  WWMH123068           JUNCTION     0.24     0.86   118.98     5  00:02        0.86
  WWMH123069           JUNCTION     0.23     0.81   119.51     4  23:59        0.81
  WWMH123070           JUNCTION     0.29     0.91   120.05     4  23:58        0.91
  WWMH123071           JUNCTION     0.22     0.77   120.66     4  23:58        0.77
  WWMH126133           JUNCTION     0.01     0.01   161.53     0  05:56        0.01
  WWMH131073           JUNCTION     2.59     4.25   107.20     5  00:51        4.24
  WWMH131074           JUNCTION     1.82     4.03   107.90     5  00:12        4.00
  WWMH131075           JUNCTION     0.38     2.73   108.81     5  00:56        2.70
  WWMH131080           JUNCTION     0.32     2.11   109.51     5  00:10        2.08
  WWMH131081           JUNCTION     0.27     1.60   109.86     5  00:18        1.56
  WWMH131082           JUNCTION     0.24     0.80   110.86     5  00:07        0.80
  WWMH131083           JUNCTION     0.24     0.84   112.56     5  00:04        0.84
  WWMH133000           JUNCTION     0.13     0.59   115.75     5  00:05        0.59
  WWMH133001           JUNCTION     0.06     0.07   117.06     0  12:01        0.07
  WWMH133002           JUNCTION     0.07     0.09   117.85     0  12:01        0.09
  WWMH133066           JUNCTION     0.22     0.78   117.05     5  00:05        0.78
  WWMH133067           JUNCTION     0.25     0.86   117.90     5  00:04        0.86
  WWMH133096           JUNCTION     0.11     0.36   114.90     5  00:04        0.36
  WWMH136135           JUNCTION     0.80     1.33   160.16     5  02:48        1.31
  WWMH136204           JUNCTION     0.09     0.34   160.13     5  02:57        0.34
  WWMH136247           JUNCTION     0.02     0.02   155.59     1  04:34        0.02
  WWMH136248           JUNCTION     0.04     0.04   156.46     2  04:48        0.04
  WWMH136249           JUNCTION     0.04     0.04   157.05     1  05:09        0.04
  WWMH136250           JUNCTION     1.44     2.32   160.13     5  03:00        2.32
  WWMH136253           JUNCTION     0.24     0.68   160.13     5  02:58        0.68
  WWMH136262           JUNCTION     0.00     0.00   161.48     0  00:00        0.00
  WWMH141000           JUNCTION     0.10     0.26    91.50     4  23:09        0.26
  WWMH141001           JUNCTION     0.10     0.28   105.70     5  00:06        0.28
  WWMH141002           JUNCTION     8.86     9.89   106.03     4  23:48        9.86
  WWMH141003           JUNCTION     8.47     9.49   106.02     5  01:21        9.48
  WWMH141004           JUNCTION     7.95     8.97   106.03     5  00:31        8.95
  WWMH141005           JUNCTION     7.31     8.37   106.09     2  03:17        8.31
  WWMH141006           JUNCTION     0.05     0.08   119.90     2  21:47        0.08
  WWMH141007           JUNCTION     0.04     0.07   149.26     2  21:47        0.07
  WWMH141071           JUNCTION     3.72     4.94   106.58     5  00:29        4.92
  WWMH141072           JUNCTION     2.76     4.16   106.89     5  00:18        4.13
  WWMH146000           JUNCTION     0.09     0.21    92.75     2  10:39        0.21
  WWMH146001           JUNCTION     0.06     0.13   142.14     2  10:39        0.13
  WWMH146002           JUNCTION     0.18     0.38   143.83     2  10:39        0.38
  WWMH146003           JUNCTION     0.20     0.41   144.68     2  10:36        0.41
  WWMH146004           JUNCTION     0.17     0.36   145.74     2  10:33        0.36
  WWMH146005           JUNCTION     0.21     0.43   146.32     2  10:30        0.43
  WWMH146006           JUNCTION     0.17     0.38   146.95     2  10:27        0.37
  WWMH146007           JUNCTION     1.70     2.15   149.86     2  10:25        2.15
  WWMH146008           JUNCTION     0.87     1.21   149.86     2  10:25        1.21
  WWMH146246           JUNCTION     0.01     0.01   153.94     3  04:23        0.01
  WWMH146247           JUNCTION     0.68     0.98   149.87     2  10:24        0.98
  WWMH95018            JUNCTION     0.03     0.03   165.13     0  09:00        0.03
  WWMH95019            JUNCTION     0.02     0.03   166.48     0  09:00        0.03
  WWMH95020            JUNCTION     0.01     0.02   169.96     0  09:00        0.02
  WWMH95021            JUNCTION     0.01     0.01   187.22     0  09:00        0.01
  WWMH95022            JUNCTION     0.01     0.02   190.09     0  09:00        0.02
  WWMH95023            JUNCTION     0.01     0.02   191.87     0  09:00        0.02
  WWMH95024            JUNCTION     0.00     0.00   192.85     0  00:00        0.00
  WWMI102001           JUNCTION     0.09     0.10   197.62     0  22:00        0.10
  WWMI102002           JUNCTION     0.09     0.09   198.71     0  22:00        0.09
  WWMI102003           JUNCTION     0.09     0.09   199.99     0  22:00        0.09
  WWMI102066           JUNCTION     0.04     0.05   203.28     0  22:00        0.05
  WWMI102067           JUNCTION     0.04     0.05   208.18     0  22:00        0.05
  WWMI102068           JUNCTION     0.04     0.05   212.93     0  22:00        0.05
  WWMI102069           JUNCTION     0.07     0.08   213.80     0  22:01        0.08
  WWMI102070           JUNCTION     0.15     0.16   214.37     0  22:00        0.16
  WWMI102071           JUNCTION     0.06     0.06   214.46     0  22:00        0.06
  WWMI102072           JUNCTION     0.05     0.05   216.69     0  22:00        0.05
  WWMI102073           JUNCTION     0.04     0.04   218.25     0  22:00        0.04
  WWMI102131           JUNCTION     0.04     0.05   219.33     0  22:04        0.05
  WWMI102132           JUNCTION     0.04     0.04   220.92     0  22:02        0.04
  WWMI104050           JUNCTION     0.28     0.28   222.60     0  22:00        0.28
  WWMI104051           JUNCTION     0.03     0.03   222.09     0  22:00        0.03
  WWMI111032           JUNCTION     0.11     0.12   179.39     0  22:03        0.12
  WWMI111035           JUNCTION     0.11     0.12   181.51     4  22:00        0.12
  WWMI111036           JUNCTION     0.09     0.10   182.88     0  22:00        0.10
  WWMI111037           JUNCTION     0.04     0.05   189.48     0  22:00        0.05
  WWMI111040           JUNCTION     0.11     0.12   180.66     0  22:01        0.12
  WWMI111053           JUNCTION     0.06     0.07   193.42     0  22:00        0.07
  WWMI111099           JUNCTION     0.09     0.10   196.05     0  22:00        0.10
  WWMI112000           JUNCTION     0.05     0.06   196.58     0  22:00        0.06
  WWMI121026           JUNCTION     0.14     0.35   171.40     2  21:09        0.35
  WWMI121027           JUNCTION     0.12     0.35   172.52     2  21:05        0.35
  WWMI121028           JUNCTION     0.09     0.13   172.79     2  21:06        0.12
  WWMI121029           JUNCTION     0.09     0.10   174.89     0  22:11        0.10
  WWMI121030           JUNCTION     0.09     0.10   176.99     0  22:09        0.10
  WWMI121031           JUNCTION     0.11     0.12   178.13     0  22:06        0.12
  WWMI121100           JUNCTION     0.11     0.13   177.18     0  22:07        0.13
  WWMI121103           JUNCTION     0.18     0.43   172.79     2  21:05        0.43
  WWMI131009           JUNCTION     0.12     0.20   152.45     2  21:42        0.20
  WWMI131010           JUNCTION     1.16     1.30   154.82     2  21:40        1.30
  WWMI131011           JUNCTION     0.96     1.09   155.77     2  21:37        1.08
  WWMI131012           JUNCTION     0.60     0.72   155.77     2  21:37        0.71
  WWMI131013           JUNCTION     0.51     0.68   157.00     2  21:33        0.68
  WWMI131014           JUNCTION     1.23     1.34   157.79     2  21:27        1.34
  WWMI131017           JUNCTION     0.15     0.25   157.80     2  21:28        0.25
  WWMI131018           JUNCTION     0.10     0.18   158.91     2  21:25        0.18
  WWMI131019           JUNCTION     0.13     0.25   160.88     2  21:25        0.25
  WWMI131020           JUNCTION     0.14     0.26   162.19     2  21:21        0.26
  WWMI131021           JUNCTION     0.12     0.25   163.99     2  21:19        0.25
  WWMI131022           JUNCTION     0.13     0.26   165.69     2  21:16        0.26
  WWMI131023           JUNCTION     0.18     0.38   167.09     2  21:13        0.38
  WWMI131024           JUNCTION     1.28     1.53   169.66     2  21:10        1.53
  WWMI131025           JUNCTION     0.12     0.30   169.85     2  21:10        0.30
  WWMI131111           JUNCTION     0.13     0.26   161.16     2  21:21        0.26
  WWMI141008           JUNCTION     0.14     0.23   150.77     2  21:46        0.22
  WWMI81               JUNCTION     0.00     0.00   268.14     5  01:54        0.00
  WWMI92143            JUNCTION     0.00     0.00   257.49     0  00:31        0.00
  WWMI92144            JUNCTION     0.00     0.00   256.47     3  21:53        0.00
  WWMI92146            JUNCTION     0.00     0.00   254.54     2  04:54        0.00
  WWMI92147            JUNCTION     0.04     0.04   243.51     3  22:12        0.04
  WWMI92148            JUNCTION     0.02     0.03   241.55     3  22:15        0.03
  WWMI92149            JUNCTION     0.02     0.03   237.00     0  22:18        0.03
  WWMI92150            JUNCTION     0.02     0.02   229.77     0  22:19        0.02
  WWMI92151            JUNCTION     0.04     0.05   225.80     0  22:00        0.05
  WWMI92152            JUNCTION     0.04     0.04   224.00     0  22:00        0.04
  WWMI92156            JUNCTION     0.03     0.04   244.69     0  22:07        0.04
  WWMI92157            JUNCTION     0.05     0.05   245.62     0  22:04        0.05
  WWMI92158            JUNCTION     0.04     0.04   247.15     0  22:02        0.04
  WWMI92159            JUNCTION     0.04     0.05   248.15     0  22:00        0.05
  WWMI92161            JUNCTION     0.04     0.05   249.63     0  22:00        0.05
  WWMJ111043           JUNCTION     0.02     0.04   184.37     0  09:00        0.04
  WWMJ111047           JUNCTION     0.05     0.10   176.83     0  09:00        0.10
  WWMJ111056           JUNCTION     0.02     0.03   191.79     1  08:44        0.03
  WWMJ111094           JUNCTION     0.04     0.08   178.03     0  08:12        0.08
  WWMJ111103           JUNCTION     0.02     0.05   177.24     0  08:18        0.05
  WWMJ120001           JUNCTION     0.05     0.11   163.74     0  08:13        0.11
  WWMJ120009           JUNCTION     1.46     1.63   162.62     4  08:00        1.63
  WWMJ120010           JUNCTION     0.03     0.07   153.14     0  09:01        0.07
  WWMJ120012           JUNCTION     0.14     0.31   160.55     0  09:01        0.31
  WWMJ120013           JUNCTION     0.09     0.21   161.56     0  09:00        0.21
  WWMJ120014           JUNCTION     0.08     0.20   162.30     0  09:00        0.20
  WWMJ120015           JUNCTION     0.00     0.00   164.04     0  00:00        0.00
  WWMJ120016           JUNCTION     0.05     0.11   124.53     0  09:01        0.11
  WWMJ120017           JUNCTION     0.05     0.10   122.47     0  09:02        0.10
  WWMJ120018           JUNCTION     0.00     0.00   135.90     0  00:00        0.00
  WWMJ120021           JUNCTION     0.03     0.08   166.24     0  09:00        0.08
  WWMJ120022           JUNCTION     0.05     0.10   168.70     0  09:00        0.10
  WWMJ120023           JUNCTION     0.03     0.06   172.61     0  09:00        0.06
  WWMJ120024           JUNCTION     0.02     0.05   177.06     0  09:00        0.05
  WWMJ120025           JUNCTION     0.04     0.08   174.93     0  09:00        0.08
  WWMJ120026           JUNCTION     0.08     0.17   174.58     0  09:00        0.17
  WWMJ120027           JUNCTION     0.04     0.10   176.24     0  09:00        0.10
  WWMJ120032           JUNCTION     0.05     0.11   173.00     0  09:00        0.11
  WWMJ120033           JUNCTION     0.04     0.09   171.67     0  09:00        0.09
  WWMJ120034           JUNCTION     0.52     0.60   125.45     3  08:00        0.60
  WWMJ120035           JUNCTION     0.05     0.11   126.42     3  08:00        0.11
  WWMJ120036           JUNCTION     0.06     0.12   127.58     3  08:00        0.12
  WWMJ120037           JUNCTION     0.03     0.06   132.47     3  08:00        0.06
  WWMJ120038           JUNCTION     0.04     0.09   139.54     3  08:00        0.09
  WWMJ120039           JUNCTION     0.05     0.09   141.33     3  08:00        0.09
  WWMJ120040           JUNCTION     0.04     0.08   143.56     3  08:00        0.08
  WWMJ120041           JUNCTION     0.04     0.08   146.10     3  08:00        0.08
  WWMJ120042           JUNCTION     0.04     0.08   153.42     3  08:00        0.08
  WWMJ120043           JUNCTION     0.05     0.10   167.24     0  09:01        0.10
  WWMJ120047           JUNCTION     7.81     8.69   121.72     2  03:17        8.61
  WWMJ120048           JUNCTION     0.05     0.12   159.45     0  09:01        0.12
  WWMJ120060           JUNCTION     0.04     0.09   136.81     3  08:00        0.09
  WWMK120007           JUNCTION     0.03     0.06   154.61     3  08:00        0.06
  WWMK120008           JUNCTION     0.16     0.20   154.74     3  08:00        0.20
  WWMK120009           JUNCTION     0.03     0.05   156.99     0  08:00        0.05
  OF-3                 OUTFALL      0.10     0.26    73.38     4  23:09        0.26
  F109157              STORAGE      2.77     4.42   165.02     4  07:36        4.42
  F118029              STORAGE      1.73     3.29   135.89     5  03:00        3.29
  F137193              STORAGE      3.43     4.67   145.02     3  22:38        4.67
  F137204              STORAGE      3.11     5.00   106.90     1  19:28        5.00
  F89189               STORAGE      5.41     8.50   185.60     4  05:23        8.50
  G146040              STORAGE      3.54     5.33   142.93     2  06:21        5.33
  HWY240LS             STORAGE      5.38     7.50   150.50     2  19:07        7.50
  J120019              STORAGE      3.67     6.00   119.60     4  19:52        5.99
  
  
  *******************
  Node Inflow Summary
  *******************
  
  -------------------------------------------------------------------------------------------------
                                  Maximum  Maximum                  Lateral       Total        Flow
                                  Lateral    Total  Time of Max      Inflow      Inflow     Balance
                                   Inflow   Inflow   Occurrence      Volume      Volume       Error
  Node                 Type           GPM      GPM  days hr:min    10^6 gal    10^6 gal     Percent
  -------------------------------------------------------------------------------------------------
  J-100                JUNCTION      0.00   124.89     4  07:58           0       0.139       0.004
  J-110                JUNCTION      0.00     0.00     0  00:00           0           0       0.000 gal
  J-120_ANDR           JUNCTION      0.00   200.04     2  06:27           0      0.0142       9.875
  J-130_CHAR           JUNCTION      0.00   700.00     1  16:50           0     0.00583      25.685
  J-140_CHEHAL         JUNCTION      0.00  1600.00     1  05:07           0      0.0504       2.554
  J-150_CREEKSD        JUNCTION      0.00   445.00     1  22:42           0     0.00454      30.617
  J-160_DAY            JUNCTION      0.00  2600.00     1  05:20           0      0.0873      18.960
  J-170_FERN1          JUNCTION      0.00  2400.00     0  19:00           0       0.173       2.068
  J-190_HWY240_1       JUNCTION      0.00  3200.00     0  21:01           0       0.147       1.077
  J-210_SHER1          JUNCTION      0.00     0.00     0  00:00           0           0       0.000 gal
  J-230_CHEHAL_BASEFLOW JUNCTION     14.48    14.48     0  07:00      0.0566      0.0566       0.008
  J-240_CREEK_BASEFLOW JUNCTION      1.61     1.61     0  07:00     0.00671     0.00671       0.012
  J-250_SHER_BASEFLOW  JUNCTION      0.67     0.67     0  07:00     0.00278     0.00278       0.022
  J-260_CHAR_BASEFLOW  JUNCTION      1.96     1.96     0  07:00     0.00818     0.00818       0.006
  J-270_ANDR_BASEFLOW  JUNCTION      3.84     3.84     0  07:00       0.016       0.016       0.008
  WWMF109000           JUNCTION      0.00   205.67     4  07:45           0       0.132       0.047
  WWMF109001           JUNCTION      0.00   205.63     4  07:45           0       0.132       0.004
  WWMF109002           JUNCTION      0.56   212.51     4  07:43     0.00235       0.132       0.035
  WWMF109003           JUNCTION      0.00   221.36     4  07:42           0        0.13       0.027
  WWMF109004           JUNCTION      1.61   263.07     4  07:36     0.00671        0.13      -0.098
  WWMF109005           JUNCTION      1.20    27.69     3  08:00     0.00502       0.119       0.027
  WWMF109006           JUNCTION      0.56    26.53     3  08:00     0.00235       0.114       0.021
  WWMF109040           JUNCTION      0.00     0.00     0  00:00           0           0       0.000 gal
  WWMF109150           JUNCTION      0.00   208.37     4  07:44           0       0.132       0.013
  WWMF109153           JUNCTION      0.89   202.02     4  07:46     0.00371       0.136       0.005
  WWMF117018           JUNCTION      0.06     1.89     4  02:10    0.000445      0.0139       0.538
  WWMF117019           JUNCTION      0.33     1.83     4  21:32     0.00241      0.0135       0.128
  WWMF117020           JUNCTION      1.22     1.51     4  22:53       0.009      0.0111       0.448
  WWMF117021           JUNCTION      0.29     0.29     0  00:00     0.00212     0.00212       0.387
  WWMF117022           JUNCTION      0.00     0.00     0  00:00           0           0       0.000 gal
  WWMF117023           JUNCTION      0.00     0.00     0  00:00           0           0       0.000 gal
  WWMF117024           JUNCTION      0.00     0.00     0  00:00           0           0       0.000 gal
  WWMF117025           JUNCTION      0.00   126.10     4  07:57           0       0.139       0.019
  WWMF117026           JUNCTION      0.00   130.79     4  07:55           0        0.14       0.041
  WWMF117027           JUNCTION      0.16   174.06     4  07:50    0.000655        0.14       0.172
  WWMF117028           JUNCTION      0.00   174.12     4  07:49           0       0.139       0.020
  WWMF118001           JUNCTION      0.00     3.79     3  02:50           0    3.46e-05     -98.515
  WWMF118002           JUNCTION      0.00     4.13     3  02:50           0     0.00559   16067.159
  WWMF118003           JUNCTION      0.62     1.38     0  07:45     0.00259       0.005       0.123
  WWMF118023           JUNCTION      0.00     1.27     3  07:59           0       0.005      -0.276
  WWMF118024           JUNCTION      0.00     0.45     0  08:00           0     0.00175       0.262
  WWMF118025           JUNCTION      0.00     4.60     4  07:48           0     0.00175       0.099
  WWMF118026           JUNCTION      0.46   192.80     4  07:47     0.00194       0.139       0.077
  WWMF118048           JUNCTION      0.00   130.40     4  07:59           0       0.164       0.019
  WWMF118049           JUNCTION      5.80   130.41     4  07:59      0.0242       0.164       0.003
  WWMF118050           JUNCTION      0.00   124.85     4  07:58           0       0.139       0.009
  WWMF127007           JUNCTION      0.28    13.51     2  16:59     0.00209      0.0681       0.169
  WWMF127008           JUNCTION      0.13    13.53     2  16:53    0.000995      0.0589       0.030
  WWMF127009           JUNCTION      0.11    15.94     0  17:08    0.000811      0.0614       5.951
  WWMF127010           JUNCTION      0.07    16.80     0  17:06     0.00055      0.0607       0.141
  WWMF127011           JUNCTION      0.00    17.66     0  16:24           0      0.0593      -1.308
  WWMF127012           JUNCTION      1.26    55.38     2  04:42     0.00927      0.0547      -9.605
  WWMF127013           JUNCTION      0.00   169.39     0  04:48           0       0.054      16.168
  WWMF127014           JUNCTION      0.00    18.27     1  03:10           0      0.0531       0.502
  WWMF127015           JUNCTION      3.32     7.08     0  13:11      0.0245      0.0521       0.064
  WWMF127016           JUNCTION      0.00     3.76     3  03:01           0      0.0275       0.009
  WWMF127017           JUNCTION      1.86     3.76     1  03:32      0.0137      0.0276       0.111
  WWMF127044           JUNCTION      0.97     0.97     0  00:00     0.00715     0.00715       0.085
  WWMF127115           JUNCTION      0.15     5.76     3  09:24      0.0011      0.0422       0.023
  WWMF127116           JUNCTION      0.25     3.62     4  20:46     0.00183      0.0265       0.160
  WWMF127117           JUNCTION      0.45     3.38     0  21:10     0.00335      0.0248       0.555
  WWMF127118           JUNCTION      0.02     2.92     3  02:51    0.000183      0.0215       0.250
  WWMF127119           JUNCTION      2.82     2.82     0  00:00      0.0208      0.0208       0.022
  WWMF127203           JUNCTION      0.08     2.90     0  21:02    0.000602      0.0213       0.200
  WWMF127220           JUNCTION      0.00     2.82     0  00:10           0      0.0208       0.159
  WWMF137001           JUNCTION      0.00    12.24     1  15:54           0      0.0715      -0.020
  WWMF137002           JUNCTION      0.11    12.24     1  15:54    0.000785      0.0715       0.010
  WWMF137003           JUNCTION      0.39    12.16     1  15:52     0.00288      0.0707       0.038
  WWMF137004           JUNCTION      0.00    11.78     1  15:51           0      0.0679       0.024
  WWMF137005           JUNCTION      0.00    12.81     2  17:08           0      0.0681       0.345
  WWMF137006           JUNCTION      0.02    13.14     2  17:05    0.000131      0.0682       0.080
  WWMF137072           JUNCTION      1.88    14.12     1  15:55      0.0138      0.0853       0.029
  WWMF79028            JUNCTION      1.30    11.40     0  23:29     0.00589      0.0244       3.236
  WWMF79029            JUNCTION      0.00    16.24     4  04:02           0      0.0185      -0.283
  WWMF79030            JUNCTION      0.00    14.33     4  04:03           0      0.0193       1.760
  WWMF79031            JUNCTION      0.00    10.18     4  05:14           0      0.0174     -11.204
  WWMF89019            JUNCTION      0.00    13.49     4  07:59           0      0.0587       0.051
  WWMF89020            JUNCTION      0.00    13.49     4  07:59           0      0.0587       0.005
  WWMF89021            JUNCTION      3.03    13.49     4  07:58      0.0137      0.0587       0.019
  WWMF89022            JUNCTION      0.00    10.47     4  07:55           0       0.045       0.118
  WWMF89023            JUNCTION      0.50    10.22     1  07:49     0.00228      0.0437       0.026
  WWMF89024            JUNCTION      3.01     9.74     1  07:48      0.0136      0.0414       0.013
  WWMF89025            JUNCTION      0.00     7.20     0  23:30           0      0.0278       0.030
  WWMF89026            JUNCTION      0.00     7.84     0  23:30           0      0.0278       0.009
  WWMF89027            JUNCTION      0.94    13.20     4  04:03     0.00426      0.0279       0.030
  WWMF89160            JUNCTION      0.30    10.49     3  07:39     0.00134       0.045       0.051
  WWMF99007            JUNCTION      4.82    26.01     3  08:00      0.0201       0.112       0.033
  WWMF99008            JUNCTION      0.00    21.21     3  08:00           0       0.092       0.012
  WWMF99009            JUNCTION      1.17    21.23     3  08:00     0.00488       0.092       0.032
  WWMF99011            JUNCTION      0.00    20.09     3  08:00           0      0.0872       0.044
  WWMF99012            JUNCTION      1.73    20.09     3  08:00     0.00723      0.0872       0.010
  WWMF99013            JUNCTION      1.33    18.37     4  08:00     0.00556        0.08       0.019
  WWMF99014            JUNCTION      0.00    17.05     4  08:00           0      0.0744       0.029
  WWMF99015            JUNCTION      1.00    17.05     4  08:00     0.00417      0.0745       0.017
  WWMF99016            JUNCTION      0.20    16.06     4  08:00    0.000911      0.0703       0.017
  WWMF99017            JUNCTION      0.00    15.86     4  08:00           0      0.0694       0.009
  WWMF99018            JUNCTION      2.00    15.86     4  08:00     0.00906      0.0694       0.016
  WWMF99152            JUNCTION      0.38    13.86     4  08:00     0.00171      0.0604       0.015
  WWMG108005           JUNCTION      0.00     0.86     0  07:36           0     0.00241      -0.011
  WWMG108006           JUNCTION      0.00     0.60     3  07:36           0     0.00243       0.680
  WWMG108007           JUNCTION      0.58     0.58     0  07:00     0.00243     0.00243      -0.026
  WWMG108008           JUNCTION      0.20    15.10     0  08:00    0.000797      0.0589       0.690
  WWMG108009           JUNCTION      0.05    14.90     0  08:00    0.000177      0.0581       0.049
  WWMG108010           JUNCTION      0.00    14.85     0  08:00           0      0.0579       0.035
  WWMG108011           JUNCTION     14.85    14.85     0  07:00       0.058       0.058       0.143
  WWMG108080           JUNCTION      0.26   390.86     3  09:46       0.001       0.208      -0.075
  WWMG109046           JUNCTION      0.00   493.40     3  09:41           0       0.152       1.959
  WWMG109047           JUNCTION      1.96   505.56     3  09:39     0.00764       0.152      -0.019
  WWMG109048           JUNCTION      1.06   592.23     3  09:36     0.00413       0.146       0.990
  WWMG109049           JUNCTION      0.31   896.21     3  09:32     0.00121        0.14      -1.423
  WWMG109050           JUNCTION      0.17   904.24     3  09:32    0.000679        0.14       1.415
  WWMG109051           JUNCTION      0.11   942.13     3  09:31    0.000413        0.14       0.042
  WWMG114000           JUNCTION      0.79    30.26     0  11:01     0.00586       0.181       0.008
  WWMG114001           JUNCTION      0.00     0.00     0  00:00           0           0       0.000 gal
  WWMG114002           JUNCTION      0.31     9.55     0  09:17     0.00228     0.00794      65.170
  WWMG116235           JUNCTION      0.29  1405.46     4  07:05     0.00217       0.366       3.607
  WWMG116236           JUNCTION      0.76  1605.52     4  07:03     0.00558       0.359      -1.372
  WWMG116237           JUNCTION      1.27  1932.28     4  07:02      0.0094       0.363       2.772
  WWMG116238           JUNCTION      0.23  1930.50     4  07:02     0.00168       0.354       0.011
  WWMG116239           JUNCTION      0.42  2017.83     4  07:01     0.00165       0.352       0.036
  WWMG116240           JUNCTION      0.17  2262.22     1  07:32    0.000679        0.35      -0.041
  WWMG116241           JUNCTION      0.20  2300.48     1  07:32    0.000797       0.347      -0.630
  WWMG117195           JUNCTION      0.32  6308.47     0  21:02     0.00124       0.355       2.406
  WWMG118004           JUNCTION      0.00     0.79     0  07:40           0     0.00241       0.041
  WWMG118086           JUNCTION      0.76   388.92     3  09:47     0.00295       0.212       0.173
  WWMG118104           JUNCTION      0.00  3879.71     0  21:02           0       0.145       1.619
  WWMG123072           JUNCTION      0.00  1266.97     4  23:56           0        1.07       0.258
  WWMG123073           JUNCTION      0.00  1267.03     4  23:48           0        1.07       0.245
  WWMG123074           JUNCTION   1241.12  1267.04     4  23:45       0.883        1.07       0.231
  WWMG123075           JUNCTION      0.00    31.42     0  11:05           0       0.189       0.029
  WWMG123076           JUNCTION      0.67    31.42     0  11:04     0.00495       0.189       0.011
  WWMG123077           JUNCTION      0.00    30.75     0  11:03           0       0.184       0.021
  WWMG123078           JUNCTION      0.50    30.75     0  11:03     0.00366       0.184       0.019
  WWMG123079           JUNCTION      0.00    30.26     0  11:02           0       0.181       0.030
  WWMG126098           JUNCTION      0.15     8.54     2  02:17     0.00113      0.0566       0.594
  WWMG126102           JUNCTION      0.82     7.11     1  01:01     0.00607      0.0462       0.055
  WWMG126147           JUNCTION      0.00     0.00     0  00:00           0           0       0.000 gal
  WWMG126164           JUNCTION      0.44     0.44     0  00:00     0.00327     0.00327       0.007
  WWMG126200           JUNCTION      0.16     6.55     1  01:07     0.00118      0.0456       1.753
  WWMG126236           JUNCTION      0.63  1018.50     4  07:12     0.00466        0.38       1.419
  WWMG126237           JUNCTION      0.54  1046.84     4  07:11       0.004       0.374      -0.284
  WWMG126238           JUNCTION      0.17  1043.71     4  07:11     0.00123       0.375       1.352
  WWMG126239           JUNCTION      0.19  1046.79     4  07:11     0.00141       0.379       1.264
  WWMG126240           JUNCTION      0.01  1043.00     4  07:10    7.85e-05       0.377      -0.017
  WWMG126241           JUNCTION      0.60  1054.33     4  07:09     0.00442        0.37       0.017
  WWMG126242           JUNCTION      0.07  1086.67     4  07:08    0.000523       0.366       0.030
  WWMG126243           JUNCTION      0.07  1321.73     4  07:06    0.000523       0.357      -2.307
  WWMG127109           JUNCTION      0.11     6.43     0  04:27    0.000811     0.00425     232.824
  WWMG127110           JUNCTION      0.17     8.05     0  04:28     0.00128     0.00726      39.132
  WWMG127114           JUNCTION      0.07     5.83     3  02:52     0.00055      0.0427       0.033
  WWMG127133           JUNCTION      1.98     1.98     0  00:00      0.0146      0.0146       0.048
  WWMG127188           JUNCTION      1.29     8.39     1  01:02      0.0095      0.0557       0.347
  WWMG127195           JUNCTION      0.91  1047.20     4  07:09     0.00673       0.377      -0.050
  WWMG136015           JUNCTION      0.38   531.72     2  09:59      0.0028       0.532       0.023
  WWMG136016           JUNCTION      0.05   870.85     4  04:31    0.000393       0.566       2.722
  WWMG136017           JUNCTION      0.63   788.63     4  07:18     0.00463       0.478      -0.508
  WWMG136018           JUNCTION      1.91   791.13     4  07:16      0.0141       0.472       0.390
  WWMG136019           JUNCTION      0.00   961.07     4  07:14           0        0.46       0.475
  WWMG136020           JUNCTION      0.92   767.21     2  09:52     0.00678       0.495       0.428
  WWMG136021           JUNCTION      0.66    12.29     2  03:01     0.00484      0.0835       0.010
  WWMG136035           JUNCTION      0.27   144.18     2  06:37     0.00202      0.0539       0.033
  WWMG136036           JUNCTION      0.00   168.72     2  06:35           0      0.0484       0.417
  WWMG136037           JUNCTION      0.46   202.76     2  06:27     0.00343      0.0382       0.570
  WWMG136038           JUNCTION      1.31   142.45     3  09:47     0.00966       0.022       0.676
  WWMG136039           JUNCTION      0.02   192.35     4  12:33    0.000183      0.0113     -10.721
  WWMG136050           JUNCTION      0.30     0.62     2  00:00      0.0022     0.00457       0.378
  WWMG136051           JUNCTION      0.08     0.54     3  00:40    0.000602     0.00288    2879.743 gal
  WWMG136053           JUNCTION      0.07     0.25     2  01:02    0.000497     0.00185       0.328
  WWMG136054           JUNCTION      0.06     0.20     0  00:23    0.000471     0.00136       0.709
  WWMG136064           JUNCTION      0.27    11.64     2  02:58     0.00199      0.0787       0.065
  WWMG136065           JUNCTION      0.82    11.37     2  02:50     0.00605      0.0768       0.194
  WWMG136066           JUNCTION      1.34    10.55     2  02:44     0.00989      0.0709       0.136
  WWMG136067           JUNCTION      0.26     9.21     2  02:40     0.00194       0.061       0.089
  WWMG136068           JUNCTION      0.25     8.95     2  02:36     0.00183       0.059      -0.201
  WWMG136069           JUNCTION      0.02     8.70     2  02:35    0.000157      0.0574       0.405
  WWMG136070           JUNCTION      0.14     8.68     2  02:30     0.00102      0.0573       0.157
  WWMG136074           JUNCTION      0.32     0.32     0  00:00     0.00238     0.00238       0.378
  WWMG136095           JUNCTION      0.73     0.88     3  03:41     0.00537      0.0065       0.108
  WWMG136097           JUNCTION      0.10     0.10     0  00:00    0.000707    0.000707     706.704 gal
  WWMG136100           JUNCTION      0.00     0.00     0  00:00           0           0       0.000 gal
  WWMG136254           JUNCTION      0.12     0.12     0  00:00     0.00089     0.00089       0.091
  WWMG136260           JUNCTION      0.07   947.76     4  07:14    0.000523       0.375      -0.349
  WWMG137106           JUNCTION      0.00     0.98     0  00:48           0     0.00649       0.987
  WWMG137107           JUNCTION      0.00     0.45     0  00:12           0     0.00115       1.257
  WWMG137183           JUNCTION      0.16     0.16     0  00:12     0.00115     0.00115       0.244
  WWMG137193           JUNCTION      0.15     0.45     3  00:09     0.00113     0.00297      30.280
  WWMG137194           JUNCTION      0.48   169.06     2  06:35     0.00351      0.0517      -0.234
  WWMG137195           JUNCTION      1.67   171.84     2  06:35      0.0124      0.0485       0.074
  WWMG146012           JUNCTION      0.06    24.69     2  10:06    0.000471     0.00821      -4.145
  WWMG146013           JUNCTION      0.00     0.87     0  01:47           0     0.00638       0.017
  WWMG146014           JUNCTION      0.24   530.77     2  10:01     0.00175       0.533       0.417
  WWMG146025           JUNCTION      0.87     0.87     0  00:00     0.00639     0.00639       0.082
  WWMG146075           JUNCTION      0.00   528.76     2  10:02           0       0.531       0.005
  WWMG146076           JUNCTION      0.00   530.61     2  10:03           0        0.54       0.449
  WWMG146077           JUNCTION      0.08   490.12     2  10:06    0.000602       0.542       0.092
  WWMG146078           JUNCTION      0.05     0.67     2  01:55    0.000393     0.00495       0.014
  WWMG146079           JUNCTION      0.06   475.52     2  10:10    0.000419       0.541       0.100
  WWMG79032            JUNCTION      2.50     4.99     1  07:52      0.0113      0.0209      23.578
  WWMG79033            JUNCTION      0.11     2.04     0  08:00    0.000509     0.00924       0.048
  WWMG79034            JUNCTION      1.93     1.93     0  07:00     0.00873     0.00873       0.039
  WWMG79195            JUNCTION      0.12     3.29     2  07:24    0.000304     0.00788       0.010
  WWMG79196            JUNCTION      0.82     3.22     2  07:20     0.00207     0.00759       0.183
  WWMG79244            JUNCTION      0.46     3.17     2  05:11     0.00116     0.00553       0.102
  WWMG79245            JUNCTION      0.00     8.21     1  04:16           0     0.00415     -20.003
  WWMG79246            JUNCTION      1.75     2.29     0  06:52     0.00442     0.00524      26.171
  WWMG89076            JUNCTION      0.83     0.83     0  07:00     0.00325     0.00325       0.000
  WWMG89185            JUNCTION      0.00    28.93     1  07:47           0      0.0728       0.003
  WWMG89186            JUNCTION      0.14    28.93     1  07:46    0.000359      0.0728       0.009
  WWMG89187            JUNCTION      0.28    28.80     1  07:44    0.000718      0.0725       0.024
  WWMG89189            JUNCTION      1.13    28.52     1  07:42     0.00284      0.0718       0.016
  WWMG89192            JUNCTION      0.11    27.42     1  07:40    0.000275      0.0689       0.020
  WWMG89193            JUNCTION     17.52    27.31     1  07:39      0.0443      0.0687       0.007
  WWMG89194            JUNCTION      6.54     9.80     1  07:37      0.0165      0.0244       0.015
  WWMG89250            JUNCTION      0.00  2253.76     1  05:08           0      0.0485      -1.796
  WWMG89258            JUNCTION      1.38  1511.88     4  21:37      0.0054        0.13       0.058
  WWMG89259            JUNCTION      0.00  1676.65     4  21:36           0       0.125       0.631
  WWMG89260            JUNCTION      0.00  4257.86     1  05:08           0       0.125       0.138
  WWMG89261            JUNCTION      0.00    28.93     1  07:48           0      0.0728       0.022
  WWMG99099            JUNCTION      0.26   982.31     3  09:30       0.001       0.139       0.043
  WWMG99100            JUNCTION      1.45  1005.82     3  09:30     0.00567       0.138       0.035
  WWMG99101            JUNCTION      0.06  1049.57     3  09:29    0.000236       0.133       0.046
  WWMG99102            JUNCTION      0.00  1130.66     3  09:28           0       0.133       0.052
  WWMG99104            JUNCTION      0.06  1264.76     3  09:27    0.000236       0.133       0.052
  WWMG99105            JUNCTION      0.68  1371.76     3  09:26     0.00266       0.132       0.043
  WWMH104008           JUNCTION      0.00    13.66     0  09:00           0      0.0531       0.016
  WWMH104009           JUNCTION      0.00    13.67     0  09:00           0      0.0532       0.018
  WWMH104010           JUNCTION      0.18    13.67     0  09:00    0.000689      0.0532       0.003
  WWMH104011           JUNCTION      2.31    13.51     0  09:00     0.00896      0.0525       0.047
  WWMH104012           JUNCTION      0.29    11.20     0  09:00     0.00113      0.0435       0.012
  WWMH104040           JUNCTION      0.00     4.58     0  11:00           0      0.0271       0.015
  WWMH104041           JUNCTION      1.49     4.59     0  11:00     0.00885      0.0271       0.074
  WWMH104042           JUNCTION      0.31     3.10     0  11:00     0.00185      0.0183       0.130
  WWMH104043           JUNCTION      0.45     2.78     0  11:00     0.00267      0.0165       0.183
  WWMH104044           JUNCTION      2.33     2.33     0  10:00      0.0138      0.0138       0.152
  WWMH105001           JUNCTION      4.13    10.91     0  09:00       0.016      0.0424       0.004
  WWMH105002           JUNCTION      0.00     6.80     0  09:00           0      0.0264       0.044
  WWMH105003           JUNCTION      1.49     6.80     0  09:00     0.00576      0.0264       0.005
  WWMH105004           JUNCTION      0.00     5.32     0  09:00           0      0.0207       0.021
  WWMH105005           JUNCTION      3.30     5.32     0  09:00      0.0128      0.0207       0.020
  WWMH105017           JUNCTION      0.00     2.02     0  09:00           0     0.00785       0.020
  WWMH114003           JUNCTION      0.00    32.24     1  03:51           0      0.0137     -36.244
  WWMH114004           JUNCTION      2.79    39.90     1  03:51      0.0206      0.0781       1.451
  WWMH114005           JUNCTION      0.00    33.03     1  03:51           0      0.0532       3.252
  WWMH114006           JUNCTION      0.00    31.82     0  14:20           0      0.0537       2.303
  WWMH114007           JUNCTION      0.00    13.65     0  09:01           0      0.0531       0.021
  WWMH114026           JUNCTION      0.00    29.47     2  11:00           0       0.175       0.006
  WWMH114027           JUNCTION      0.42    29.48     2  11:00     0.00246       0.175       0.010
  WWMH114028           JUNCTION      0.00    29.06     0  11:00           0       0.172       0.020
  WWMH114029           JUNCTION      0.13    29.07     2  11:00    0.000795       0.172       0.030
  WWMH114030           JUNCTION      0.25    28.94     2  11:00     0.00151       0.172       0.012
  WWMH114031           JUNCTION     22.82    28.70     0  11:00       0.135        0.17       0.043
  WWMH114033           JUNCTION      0.18     5.90     0  11:11     0.00106       0.035       0.065
  WWMH114035           JUNCTION      0.01     5.74     0  11:00    7.95e-05       0.034       0.113
  WWMH114036           JUNCTION      0.71     5.73     0  11:00     0.00421       0.034       0.041
  WWMH114037           JUNCTION      0.35     5.03     0  11:00     0.00207      0.0298       0.110
  WWMH114038           JUNCTION      0.11     4.69     0  11:00    0.000636      0.0277       0.054
  WWMH114039           JUNCTION      0.00     4.58     0  11:00           0      0.0271       0.058
  WWMH114127           JUNCTION      0.00    29.47     0  11:00           0       0.175       0.013
  WWMH114140           JUNCTION      0.30    16.71     0  09:05      0.0022      0.0219      79.735
  WWMH123003           JUNCTION      0.92    19.64     0  12:00     0.00675      0.0906       0.006
  WWMH123004           JUNCTION      0.78    18.72     0  12:00     0.00578      0.0839       0.050
  WWMH123005           JUNCTION      0.10    17.94     0  12:00    0.000733      0.0781       0.057
  WWMH123006           JUNCTION      3.29    17.84     0  12:00      0.0143      0.0774       0.042
  WWMH123007           JUNCTION     14.54    14.54     0  11:00      0.0632      0.0632       0.049
  WWMH123068           JUNCTION      0.00  1270.63     4  23:59           0        1.09       0.261
  WWMH123069           JUNCTION      0.00  1270.63     4  23:58           0        1.09       0.081
  WWMH123070           JUNCTION      3.67  1270.63     4  23:58      0.0271        1.09       0.087
  WWMH123071           JUNCTION      0.00  1266.97     4  23:57           0        1.06       0.122
  WWMH126133           JUNCTION      0.20     0.20     0  00:00     0.00149     0.00149       0.122
  WWMH131073           JUNCTION      0.00  1289.23     5  00:06           0        1.18       0.389
  WWMH131074           JUNCTION      0.00  1288.43     5  00:20           0        1.18       0.219
  WWMH131075           JUNCTION      0.00  1289.48     5  00:06           0        1.19       0.284
  WWMH131080           JUNCTION      0.00  1292.31     5  00:11           0        1.19       0.236
  WWMH131081           JUNCTION      3.42  1285.73     5  00:07      0.0252        1.19       0.218
  WWMH131082           JUNCTION      0.00  1282.33     5  00:05           0        1.17       0.227
  WWMH131083           JUNCTION      0.00  1282.32     5  00:04           0        1.17       0.229
  WWMH133000           JUNCTION      0.00  1270.62     5  00:05           0        1.08       0.042
  WWMH133001           JUNCTION      0.00    19.64     0  12:01           0      0.0906       0.031
  WWMH133002           JUNCTION      0.00    19.64     0  12:00           0      0.0906       0.010
  WWMH133066           JUNCTION      0.00  1270.62     5  00:04           0        1.08       0.125
  WWMH133067           JUNCTION      0.00  1270.62     5  00:02           0        1.09       0.184
  WWMH133096           JUNCTION      0.00  1282.32     5  00:04           0        1.17       0.021
  WWMH136135           JUNCTION      0.01     2.72     5  02:59    0.000105     0.00299      90.696
  WWMH136204           JUNCTION      0.11     1.54     5  01:36    0.000785     0.00231       8.966
  WWMH136247           JUNCTION      0.02     0.59     4  21:37    0.000131     0.00429       0.170
  WWMH136248           JUNCTION      0.05     0.57     2  04:49    0.000393     0.00417       0.469
  WWMH136249           JUNCTION      0.51     0.51     0  00:00      0.0038      0.0038       0.377
  WWMH136250           JUNCTION      0.00     2.08     5  02:59           0     0.00152    3574.261
  WWMH136253           JUNCTION      0.18     3.52     5  01:34     0.00131     0.00347      20.936
  WWMH136262           JUNCTION      0.00     0.00     0  00:00           0           0       0.000 gal
  WWMH141000           JUNCTION      0.00  1638.05     4  23:09           0        1.95       0.003
  WWMH141001           JUNCTION      0.00  1339.04     4  23:57           0        1.42       0.053
  WWMH141002           JUNCTION      0.00  1362.09     5  00:06           0        1.49       4.792
  WWMH141003           JUNCTION      0.00  1355.02     5  00:46           0        1.47      -1.086
  WWMH141004           JUNCTION      0.00  1342.03     5  00:19           0        1.43      -2.586
  WWMH141005           JUNCTION      0.00  1331.73     5  00:13           0        1.46       1.835
  WWMH141006           JUNCTION      0.00   105.18     2  21:47           0       0.283      -0.005
  WWMH141007           JUNCTION      0.00   105.19     2  21:46           0       0.283      -0.013
  WWMH141071           JUNCTION      0.00  1293.32     5  01:00           0        1.18      -0.041
  WWMH141072           JUNCTION      0.00  1293.10     5  00:06           0        1.18       0.136
  WWMH146000           JUNCTION      0.00   336.32     2  10:39           0       0.537       0.045
  WWMH146001           JUNCTION      0.00   336.35     2  10:39           0       0.537      -0.073
  WWMH146002           JUNCTION      0.00   338.58     2  10:36           0       0.537       0.058
  WWMH146003           JUNCTION      0.00   341.44     2  10:33           0       0.538       0.069
  WWMH146004           JUNCTION      0.00   345.42     2  10:30           0       0.537      -0.072
  WWMH146005           JUNCTION      1.87   348.16     2  10:28      0.0138       0.539       0.305
  WWMH146006           JUNCTION      0.07   347.39     2  10:26     0.00055       0.525       0.041
  WWMH146007           JUNCTION      0.59   368.34     2  10:18     0.00434       0.535       2.818
  WWMH146008           JUNCTION      0.06   415.72     2  10:15    0.000419       0.537       1.181
  WWMH146246           JUNCTION      0.00     0.59     4  02:19           0     0.00428      -0.002
  WWMH146247           JUNCTION      0.04   473.56     2  10:11    0.000262       0.541       0.863
  WWMH95018            JUNCTION      0.43     2.02     0  09:00     0.00167     0.00786       0.040
  WWMH95019            JUNCTION      0.00     1.59     0  09:00           0     0.00618      -0.056
  WWMH95020            JUNCTION      0.10     1.59     0  09:00    0.000393      0.0062       0.318
  WWMH95021            JUNCTION      0.38     1.49     0  09:00     0.00148     0.00579      -0.349
  WWMH95022            JUNCTION      0.67     1.11     0  09:00     0.00261     0.00431       0.013
  WWMH95023            JUNCTION      0.44     0.44     0  08:00      0.0017      0.0017       0.036
  WWMH95024            JUNCTION      0.00     0.00     0  00:00           0           0       0.000 gal
  WWMI102001           JUNCTION      0.00     9.70     0  22:00           0      0.0578       0.092
  WWMI102002           JUNCTION      0.00     9.70     0  22:00           0      0.0578       0.096
  WWMI102003           JUNCTION      9.70     9.70     0  21:00      0.0579      0.0579       0.140
  WWMI102066           JUNCTION      0.21     8.97     0  22:00     0.00124      0.0536       0.051
  WWMI102067           JUNCTION      0.35     8.77     0  22:00     0.00209      0.0523       0.020
  WWMI102068           JUNCTION      1.85     8.42     0  22:00      0.0111      0.0503       0.037
  WWMI102069           JUNCTION      0.00     6.58     0  22:00           0      0.0393       0.094
  WWMI102070           JUNCTION      0.95     6.58     0  22:00     0.00566      0.0393       0.118
  WWMI102071           JUNCTION      0.07     5.63     0  22:00    0.000413      0.0336       0.028
  WWMI102072           JUNCTION      0.78     5.57     0  22:00     0.00468      0.0333       0.060
  WWMI102073           JUNCTION      0.74     4.79     0  22:00     0.00444      0.0286       0.020
  WWMI102131           JUNCTION      0.00     4.05     0  22:02           0      0.0241       0.030
  WWMI102132           JUNCTION      0.00     4.05     0  22:00           0      0.0242       0.040
  WWMI104050           JUNCTION      0.16     4.05     0  22:00    0.000982      0.0242       0.211
  WWMI104051           JUNCTION      0.00     4.05     0  22:00           0      0.0242       0.013
  WWMI111032           JUNCTION      0.00    28.77     0  22:01           0       0.171       0.082
  WWMI111035           JUNCTION      0.39    28.77     4  22:00     0.00233       0.171       0.052
  WWMI111036           JUNCTION      0.00    28.38     0  22:00           0       0.169       0.021
  WWMI111037           JUNCTION      1.62    28.38     0  22:00     0.00969       0.169       0.006
  WWMI111040           JUNCTION      0.02    28.78     4  22:00    0.000103       0.171       0.066
  WWMI111053           JUNCTION      2.95    26.76     0  22:00      0.0176        0.16       0.009
  WWMI111099           JUNCTION      5.16    23.82     0  22:00      0.0308       0.142       0.084
  WWMI112000           JUNCTION      0.00     9.70     0  22:00           0      0.0577       0.008
  WWMI121026           JUNCTION      0.00   275.02     2  21:08           0       0.243       0.196
  WWMI121027           JUNCTION      0.00   270.24     2  21:05           0       0.243      -0.053
  WWMI121028           JUNCTION      8.33    36.91     0  22:00      0.0485       0.221       0.026
  WWMI121029           JUNCTION      0.00    29.02     0  22:09           0       0.173       0.054
  WWMI121030           JUNCTION      0.00    29.02     0  22:08           0       0.173       0.027
  WWMI121031           JUNCTION      0.15    28.90     0  22:03    0.000878       0.172       0.074
  WWMI121100           JUNCTION      0.13    29.02     0  22:06    0.000801       0.173       0.041
  WWMI121103           JUNCTION      0.00   272.76     2  21:04           0       0.243       0.028
  WWMI131009           JUNCTION      0.36   110.93     2  21:40     0.00207       0.283       0.020
  WWMI131010           JUNCTION      0.01   113.25     2  21:37    7.85e-05       0.283       0.653
  WWMI131011           JUNCTION      0.14   116.09     2  21:34    0.000787       0.284       0.466
  WWMI131012           JUNCTION      0.02   117.18     2  21:33    0.000105       0.283       0.070
  WWMI131013           JUNCTION      0.00   130.18     2  21:28           0       0.284       0.216
  WWMI131014           JUNCTION      0.64   133.83     2  21:26     0.00372       0.285       0.575
  WWMI131017           JUNCTION      0.00   134.62     2  21:25           0       0.282       0.040
  WWMI131018           JUNCTION      4.58   134.66     2  21:25      0.0266       0.282       0.006
  WWMI131019           JUNCTION      0.00   139.21     2  21:22           0       0.255       0.074
  WWMI131020           JUNCTION      0.00   144.52     2  21:19           0       0.255       0.052
  WWMI131021           JUNCTION      0.00   158.02     2  21:16           0       0.255       0.068
  WWMI131022           JUNCTION      0.00   178.78     2  21:13           0       0.255       0.071
  WWMI131023           JUNCTION      2.80   224.13     2  21:10      0.0163       0.255       0.101
  WWMI131024           JUNCTION      0.00   221.13     2  21:10           0       0.243       1.570
  WWMI131025           JUNCTION      0.00   232.50     2  21:09           0       0.243       0.039
[...]
  WWGM1401                1.00   0.00  0.00  0.00  0.00  0.00  0.00  1.00  0.00  0.00
  WWGM1402                1.00   0.00  0.00  0.00  0.00  0.00  0.00  1.00  0.00  0.00
  WWGM1403                5.56   0.00  0.00  0.00  0.00  0.00  0.00  1.00  0.00  0.00
  WWGM1411                1.00   0.00  0.00  0.00  0.00  0.00  0.00  1.00  0.00  0.00
  WWGM1419                1.00   0.00  0.00  0.00  0.00  0.00  0.00  1.00  0.00  0.00
  WWGM1420                1.00   1.00  0.00  0.00  0.00  0.00  0.00  0.00  0.00  0.00
  WWGM1422                1.00   1.00  0.00  0.00  0.00  0.00  0.00  0.00  0.00  0.00
  WWGM1442                1.00   0.00  0.00  0.00  0.00  0.00  0.00  1.00  0.00  0.00
  WWGM1447                1.00   0.00  0.00  0.00  0.00  0.00  0.00  1.00  0.00  0.00
  WWGM1448                1.00   0.00  0.02  0.00  0.00  0.00  0.98  0.00  0.00  0.00
  WWGM1449                1.00   0.00  0.00  0.00  0.00  0.00  0.00  1.00  0.00  0.00
  WWGM1451                1.00   0.06  0.00  0.00  0.00  0.00  0.00  0.94  0.00  0.00
  WWGM1452                1.00   0.00  0.06  0.00  0.00  0.00  0.94  0.00  0.00  0.00
  WWGM1462                4.05   0.03  0.07  0.00  0.00  0.00  0.91  0.00  0.00  0.00
  WWGM1463                1.00   0.03  0.00  0.00  0.97  0.00  0.00  0.00  0.02  0.00
  WWGM1464                1.00   0.00  0.03  0.00  0.97  0.00  0.00  0.00  0.00  0.00
  WWGM1465                1.00   0.00  0.00  0.00  0.99  0.00  0.00  0.01  0.99  0.00
  WWGM1470                1.00   0.00  0.00  0.00  0.00  0.00  0.00  1.00  0.00  0.00
  WWGM1476                1.00   0.05  0.03  0.00  0.93  0.00  0.00  0.00  0.93  0.00
  WWGM1477                1.00   0.00  0.08  0.00  0.00  0.00  0.92  0.00  0.00  0.00
  WWGM1480                1.00   0.00  0.00  0.00  0.00  0.00  0.00  1.00  0.00  0.00
  WWGM1481                1.00   0.00  0.00  0.00  0.00  0.00  0.00  1.00  0.00  0.00
  WWGM1529                1.00   0.00  0.00  0.00  0.00  0.00  0.00  1.00  0.00  0.00
  WWGM1534                1.00   0.00  0.00  0.00  0.00  0.00  0.00  1.00  0.00  0.00
  WWGM1539                1.00   0.00  0.00  0.00  0.00  0.00  0.00  1.00  0.00  0.00
  WWGM1547                1.00   0.00  0.00  0.00  0.00  0.00  0.00  1.00  0.00  0.00
  WWGM1548                1.00   0.00  1.00  0.00  0.00  0.00  0.00  0.00  0.00  0.00
  WWGM1551                1.00   0.00  0.00  0.00  0.00  0.00  0.00  1.00  0.00  0.00
  WWGM1552                1.00   0.00  0.00  0.00  0.00  0.00  0.00  0.99  0.00  0.00
  WWGM1553                3.68   0.00  0.00  0.00  0.00  0.00  0.00  1.00  0.00  0.00
  WWGM1554                1.00   0.00  0.00  0.00  0.00  0.00  0.00  1.00  0.00  0.00
  WWGM1555                1.00   0.00  0.00  0.00  0.00  0.00  1.00  0.00  0.00  0.00
  WWGM1557                1.00   0.00  0.00  0.00  0.00  0.00  0.00  1.00  0.00  0.00
  WWGM1560                1.00   0.00  0.00  0.00  0.00  0.00  0.00  1.00  0.00  0.00
  WWGM1564                1.20   1.00  0.00  0.00  0.00  0.00  0.00  0.00  0.00  0.00
  WWGM1565                1.00   0.01  0.00  0.00  0.00  0.00  0.00  0.99  0.00  0.00
  WWGM1566                1.00   0.01  0.00  0.00  0.00  0.00  0.00  0.99  0.00  0.00
  WWGM1567                1.00   0.00  0.01  0.00  0.00  0.00  0.99  0.00  0.00  0.00
  WWGM1568                1.00   0.01  0.00  0.00  0.98  0.00  0.00  0.01  0.98  0.00
  WWGM1569               12.57   0.28  0.72  0.00  0.00  0.00  0.00  0.00  0.00  0.00
  WWGM1570                1.00   0.00  0.28  0.00  0.00  0.00  0.72  0.00  0.00  0.00
  WWGM1571                1.00   0.00  0.01  0.00  0.00  0.00  0.99  0.00  0.00  0.00
  WWGM1572                1.00   0.00  0.00  0.00  0.01  0.00  0.00  0.99  0.00  0.00
  WWGM1573                1.00   0.00  0.00  0.00  0.00  0.00  0.00  1.00  0.00  0.00
  WWGM1574                1.00   0.00  0.00  0.00  0.00  0.00  0.00  1.00  0.00  0.00
  WWGM1575                1.00   0.00  0.00  0.00  0.00  0.00  1.00  0.00  0.00  0.00
  WWGM1590                1.00   0.00  0.00  0.00  0.00  0.00  0.00  1.00  0.00  0.00
  WWGM1591                1.98   0.00  0.00  0.00  0.00  0.00  1.00  0.00  0.00  0.00
  WWGM1592                1.00   0.00  1.00  0.00  0.00  0.00  0.00  0.00  0.00  0.00
  WWGM1603                1.00   0.00  0.00  0.00  0.00  0.00  0.00  1.00  0.00  0.00
  WWGM1604                1.00   0.00  0.00  0.00  0.00  0.00  0.00  1.00  0.00  0.00
  WWGM1605                1.00   0.00  0.00  0.00  0.99  0.00  0.00  0.01  0.02  0.00
  WWGM1606                1.00   0.00  0.00  0.00  0.97  0.00  0.00  0.03  0.05  0.00
  WWGM1607                1.00   0.00  0.00  0.00  0.92  0.00  0.00  0.08  0.91  0.00
  WWGM1614                1.00   1.00  0.00  0.00  0.00  0.00  0.00  0.00  0.00  0.00
  WWGM1617                1.00   0.00  0.00  0.00  0.00  0.00  0.00  1.00  0.00  0.00
  WWGM1618                1.00   0.00  0.00  0.00  0.00  0.00  0.00  1.00  0.00  0.00
  WWGM1619                1.00   0.00  0.00  0.00  0.90  0.02  0.00  0.08  0.87  0.00
  WWGM1639                1.00   0.00  0.00  0.00  0.07  0.00  0.00  0.93  0.04  0.00
  WWGM1641                1.00   0.00  0.00  0.00  0.05  0.00  0.00  0.95  0.00  0.00
  WWGM1642                3.46   0.00  0.00  0.00  0.00  0.00  0.00  1.00  0.00  0.00
  WWGM1643               11.28   0.00  0.00  0.00  0.00  0.00  0.00  1.00  0.00  0.00
  WWGM1644                1.00   0.00  0.00  0.00  0.05  0.01  0.00  0.94  0.06  0.00
  WWGM1645                1.00   0.00  0.00  0.00  0.29  0.71  0.00  0.00  0.00  0.00
  WWGM1646                1.00   0.00  0.00  0.00  0.00  0.00  0.00  1.00  0.00  0.00
  WWGM1647                1.00   0.00  0.00  0.00  0.00  0.00  0.00  1.00  0.00  0.00
  WWGM1648                1.00   0.00  0.00  0.00  0.00  0.00  0.00  1.00  0.00  0.00
  WWGM1649                1.00   0.00  0.00  0.00  0.00  0.00  0.00  1.00  0.00  0.00
  WWGM1650                1.00   0.00  0.00  0.00  0.00  0.00  0.00  1.00  0.00  0.00
  WWGM1653                1.00   0.00  0.00  0.00  0.00  0.00  0.00  1.00  0.00  0.00
  WWGM1654                1.00   0.00  0.00  0.00  0.00  0.00  0.00  1.00  0.00  0.00
  WWGM1655                1.00   0.00  0.00  0.00  0.00  0.00  0.00  1.00  0.00  0.00
  WWGM1660                1.00   0.00  0.00  0.00  0.00  0.00  0.00  1.00  0.00  0.00
  WWGM1669                1.00   0.00  0.00  0.00  1.00  0.00  0.00  0.00  0.99  0.00
  WWGM1685                1.00   0.00  0.00  0.00  0.00  0.00  0.00  1.00  0.00  0.00
  WWGM1689                1.00   0.00  0.00  0.00  0.00  0.00  0.00  1.00  0.00  0.00
  WWGM1709                1.00   0.00  0.00  0.00  0.00  0.00  0.00  1.00  0.00  0.00
  WWGM1710                1.00   0.00  0.00  0.00  1.00  0.00  0.00  0.00  1.00  0.00
  WWGM1713                1.00   0.00  0.00  0.00  0.00  0.00  0.00  1.00  0.00  0.00
  WWGM1718                1.00   0.00  0.00  0.00  0.00  0.00  0.00  1.00  0.00  0.00
  WWGM1739                1.00   0.00  0.00  0.00  0.00  0.00  0.00  1.00  0.00  0.00
  WWGM1740                2.25   0.00  0.00  0.00  0.00  0.00  0.00  1.00  0.00  0.00
  WWGM1742                1.00   0.00  0.00  0.00  1.00  0.00  0.00  0.00  1.00  0.00
  WWGM1743                1.00   0.00  1.00  0.00  0.00  0.00  0.00  0.00  0.00  0.00
  WWGM1753                1.00   0.00  0.00  0.00  0.00  0.00  0.00  1.00  0.00  0.00
  WWGM1755                1.00   0.00  0.00  0.00  1.00  0.00  0.00  0.00  1.00  0.00
  WWGM1756                1.00   0.00  1.00  0.00  0.00  0.00  0.00  0.00  0.00  0.00
  WWGM1760                1.00   0.00  0.00  0.00  1.00  0.00  0.00  0.00  0.89  0.00
  WWGM1762                1.00   0.00  0.00  0.00  0.00  0.00  0.00  1.00  0.00  0.00
  WWGM1763                1.00   0.00  0.00  0.00  0.00  0.00  0.00  1.00  0.00  0.00
  WWGM1764                1.00   0.00  0.00  0.00  0.00  0.00  0.00  1.00  0.00  0.00
  WWGM1766                1.00   0.21  0.79  0.00  0.00  0.00  0.00  0.00  0.00  0.00
  WWGM1767                1.00   0.00  0.21  0.00  0.64  0.00  0.15  0.00  0.00  0.00
  WWGM1768                1.00   0.00  0.00  0.00  0.96  0.00  0.00  0.04  0.34  0.00
  WWGM1769                1.00   0.00  0.00  0.00  0.41  0.00  0.00  0.59  0.11  0.00
  WWGM1770                1.00   0.00  1.00  0.00  0.00  0.00  0.00  0.00  0.00  0.00
  WWGM1771                1.00   0.00  0.00  0.00  0.00  0.00  0.00  1.00  0.00  0.00
  WWGM1773                1.00   0.00  0.00  0.00  0.00  0.00  0.00  1.00  0.00  0.00
  WWGM1779                1.00   0.00  0.02  0.00  0.00  0.00  0.98  0.00  0.00  0.00
  WWGM1780                1.00   0.00  0.00  0.00  0.03  0.01  0.00  0.96  0.04  0.00
  WWGM1781                1.00   0.00  0.00  0.00  0.00  0.00  0.00  1.00  0.00  0.00
  WWGM1782                1.00   0.00  0.00  0.00  0.00  0.00  0.00  1.00  0.00  0.00
  WWGM1788                1.00   0.00  0.00  0.00  0.01  0.00  0.00  0.99  0.00  0.00
  WWGM1790                1.00   0.00  0.00  0.00  0.00  0.00  0.00  1.00  0.00  0.00
  WWGM1791                1.00   0.00  0.00  0.00  1.00  0.00  0.00  0.00  0.98  0.00
  WWGM1792                1.66   0.00  0.00  0.00  0.00  0.00  1.00  0.00  0.00  0.00
  WWGM1793                1.45   0.00  0.00  0.00  1.00  0.00  0.00  0.00  0.99  0.00
  WWGM1794                1.00   0.00  0.00  0.00  1.00  0.00  0.00  0.00  1.00  0.00
  WWGM1795                1.00   0.00  0.00  0.00  1.00  0.00  0.00  0.00  0.98  0.00
  WWGM1796                1.00   0.00  0.00  0.00  1.00  0.00  0.00  0.00  0.00  0.00
  WWGM1798                1.00   0.00  0.00  0.00  1.00  0.00  0.00  0.00  1.00  0.00
  WWGM1799                1.00   0.00  0.00  0.00  1.00  0.00  0.00  0.00  0.87  0.00
  WWGM1800                1.00   0.00  0.00  0.00  1.00  0.00  0.00  0.00  0.66  0.00
  WWGM1802                1.00   0.00  0.00  0.00  1.00  0.00  0.00  0.00  0.20  0.00
  WWGM1810                1.00   0.00  0.00  0.00  0.00  0.00  0.00  1.00  0.00  0.00
  WWGM1811                1.00   0.00  0.00  0.00  0.00  0.00  0.00  1.00  0.00  0.00
  WWGM1812                1.00   0.00  0.00  0.00  0.00  0.00  0.00  1.00  0.00  0.00
  WWGM1828                1.00   0.00  0.00  0.00  0.00  0.00  0.00  1.00  0.00  0.00
  WWGM1834                1.00   0.00  0.00  0.00  0.00  0.00  0.00  1.00  0.00  0.00
  WWGM1835                1.00   0.00  0.00  0.00  0.00  0.00  0.00  1.00  0.00  0.00
  WWGM1837                1.00   0.00  0.00  0.00  0.00  0.00  0.00  1.00  0.00  0.00
  WWGM1839                1.00   0.00  0.00  0.00  0.06  0.00  0.00  0.94  0.03  0.00
  WWGM1840                1.00   0.00  0.00  0.00  0.01  0.00  0.00  0.99  0.01  0.00
  WWGM1842                1.00   0.00  0.00  0.00  0.00  0.00  0.00  1.00  0.00  0.00
  WWGM1967                4.50   0.01  0.00  0.00  0.00  0.00  0.00  0.99  0.00  0.00
  WWGM2024                1.00   0.00  0.00  0.00  0.00  0.00  0.00  1.00  0.00  0.00
  WWGM2025                7.15   0.00  0.13  0.00  0.00  0.00  0.87  0.00  0.00  0.00
  WWGM2026                1.00   0.00  0.00  0.00  1.00  0.00  0.00  0.00  0.01  0.00
  WWGM2035                1.00   0.00  0.00  0.00  0.94  0.00  0.00  0.06  0.94  0.00
  WWGM2037                1.00   0.00  0.05  0.00  0.00  0.00  0.95  0.00  0.00  0.00
  WWGM2039                1.00   0.00  1.00  0.00  0.00  0.00  0.00  0.00  0.00  0.00
  WWGM2053                4.60   1.00  0.00  0.00  0.00  0.00  0.00  0.00  0.76  0.00
  WWGM2054                1.35   0.00  0.00  0.00  1.00  0.00  0.00  0.00  1.00  0.00
  WWGM2073                4.24   0.96  0.03  0.00  0.00  0.01  0.00  0.00  0.83  0.00
  WWGM2074                2.39   1.00  0.00  0.00  0.00  0.00  0.00  0.00  0.00  0.00
  WWGM2075                1.25   0.01  0.00  0.00  0.00  0.00  0.00  0.99  0.00  0.00
  WWGM2076                1.00   0.01  0.00  0.00  0.00  0.00  0.00  0.99  0.00  0.00
  WWGM2077                1.00   0.00  0.00  0.00  1.00  0.00  0.00  0.00  1.00  0.00
  WWGM2078                1.67   0.00  0.00  0.00  0.00  0.00  1.00  0.00  0.00  0.00
  WWGM2093                1.00   0.00  0.00  0.00  0.10  0.00  0.00  0.90  0.07  0.00
  WWGM2094                1.00   0.00  0.00  0.00  0.00  0.00  1.00  0.00  0.00  0.00
  WWGM2109                1.00   0.00  0.12  0.00  0.00  0.00  0.88  0.00  0.00  0.00
  WWGM2110                1.00   0.03  0.00  0.00  0.95  0.00  0.00  0.02  0.03  0.00
  WWGM2117               66.99   0.00  1.00  0.00  0.00  0.00  0.00  0.00  0.00  0.00
  WWGM2119                1.00   0.00  0.00  0.00  1.00  0.00  0.00  0.00  0.96  0.00
  WWGM2137                1.85   0.00  0.00  0.00  0.41  0.59  0.00  0.00  0.54  0.00
  WWGM2146                1.00   0.00  0.02  0.00  0.05  0.00  0.93  0.00  0.02  0.00
  WWGM2147               15.28   0.17  0.00  0.00  0.00  0.00  0.00  0.83  0.00  0.00
  WWGM2148               21.19   0.00  0.17  0.00  0.00  0.00  0.83  0.00  0.00  0.00
  WWGM2149                1.00   0.02  0.15  0.00  0.00  0.00  0.83  0.00  0.00  0.00
  WWGM2150                4.25   0.00  0.00  0.00  0.00  0.00  0.00  1.00  0.00  0.00
  WWGM2151                1.00   0.00  0.00  0.00  0.00  0.00  0.00  1.00  0.00  0.00
  WWGM2152                1.00   0.00  0.00  0.00  0.82  0.00  0.00  0.18  0.82  0.00
  
  
  *************************
  Conduit Surcharge Summary
  *************************
  
  ----------------------------------------------------------------------------
                                                           Hours        Hours 
                         --------- Hours Full --------   Above Full   Capacity
  Conduit                Both Ends  Upstream  Dnstream   Normal Flow   Limited
  ----------------------------------------------------------------------------
  WWFM0026                    0.01      0.01     93.86      0.01         0.01
  WWFM0028                    0.40      0.40     67.20      0.41         0.01
  WWFM0038                    0.53      0.53    112.57      1.08         0.01
  WWFM0041                   24.96     24.96    109.11      0.01         0.01
  WWFM0042                    0.01      0.01    103.98      0.01         0.01
  WWFM0045                    0.20      0.22      0.21      0.21         0.20
  WWFM0048                    0.01      0.01    101.96      0.01         0.01
  WWFM0049                    0.01      0.01    101.96      0.01         0.01
  WWGM0002                    0.01      0.01     90.42      0.01         0.01
  WWGM0167                  113.51    113.51    113.72      0.01         0.01
  WWGM0168                  112.65    112.65    119.85      0.01         0.01
  WWGM0169                  110.45    110.45    120.00      0.01         0.01
  WWGM0170                  107.51    107.51    110.10      0.01         0.01
  WWGM0171                    0.01      0.01    107.28      0.01         0.01
  WWGM0177                    0.01      0.01      0.01      0.52         0.01
  WWGM0206                  111.49    111.49    112.13      0.01         0.01
  WWGM0207                    0.01      0.01    111.74      0.01         0.01
  WWGM0211                  110.29    110.29    111.74      0.01         0.01
  WWGM0212                  109.62    109.62    110.26      0.01         0.01
  WWGM0213                  109.49    109.49    109.61      7.24         7.21
  WWGM0214                  108.92    108.92    109.49      0.01         0.01
  WWGM0215                    7.82      7.82    108.62      0.01         0.01
  WWGM0235                    5.40      5.40      7.72      0.01         0.01
  WWGM0238                    4.10      4.10      5.27      0.01         0.01
  WWGM0354                    0.01      0.01      0.01      2.51         0.01
  WWGM0377                    0.01      0.01    108.70      0.01         0.01
  WWGM0378                  112.98    112.98    113.39      0.01         0.01
  WWGM0379                  112.13    112.13    112.69      0.01         0.01
  WWGM0496                    0.01      0.01    115.11      0.01         0.01
  WWGM0507                    0.01      0.01     40.63      0.01         0.01
  WWGM0514                    0.01      0.01    115.37      0.01         0.01
  WWGM0533                    0.01      0.01    119.27      0.01         0.01
  WWGM0555                    0.01      0.01      5.14      0.01         0.01
  WWGM0580                    0.01      0.01     90.43      0.01         0.01
  WWGM0617                    0.01      0.01    115.07      0.01         0.01
  WWGM1314                    0.01      0.01    111.72      0.01         0.01
  WWGM1326                    0.01      0.01      0.46      0.01         0.01
  WWGM1341                    0.01      0.01    103.15      0.01         0.01
  WWGM1356                  111.82    111.82    113.44      0.01         0.01
  WWGM1358                    0.01      0.01      8.85      0.01         0.01
  WWGM1383                    0.01      0.01    111.97      0.01         0.01
  WWGM1462                    0.01      0.01    113.83      0.01         0.01
  WWGM1463                  114.66    114.66    117.24      0.01         0.01
  WWGM1464                  114.66    114.66    119.58      0.01         0.01
  WWGM1465                    0.01      0.01    115.32      0.01         0.01
  WWGM1476                    0.01      0.01    112.78      0.01         0.01
  WWGM1477                    0.01      0.01    112.67      0.01         0.01
  WWGM1570                    0.01      0.01     88.86      0.01         0.01
  WWGM1639                    0.01      0.01      4.04      0.01         0.01
  WWGM1655                    0.01      0.01      0.01      4.52         0.01
  WWGM1767                    0.01      0.01     53.11      0.01         0.01
  WWGM1768                    0.01      0.01     29.18      0.01         0.01
  WWGM2025                    0.01      0.01    107.67      0.01         0.01
  WWGM2053                    0.01      0.19      0.08      0.10         0.01
  WWGM2054                    0.01      0.01      0.51      0.01         0.01
  WWGM2110                  112.61    112.61    113.21      0.01         0.01
  
  
  ***************
  Pumping Summary
  ***************
  
  ---------------------------------------------------------------------------------------------------------
                                                  Min       Avg       Max     Total     Power    % Time Off
                        Percent   Number of      Flow      Flow      Flow    Volume     Usage    Pump Curve
  Pump                 Utilized   Start-Ups       GPM       GPM       GPM  10^6 gal     Kw-hr    Low   High
  ---------------------------------------------------------------------------------------------------------
  PUMP-ANDR1               0.91           5      0.00    184.23    200.04     0.012      1.60    0.0    0.0
  PUMP-CHAR1               0.35           6      0.00    209.10    700.00     0.006      0.60    0.0    5.6
  PUMP-CHEHAL1             0.44           6      0.00   1571.17   1600.00     0.051      9.05    0.0   19.5
  PUMP-CREEKSD1            0.22           3      0.00    282.13    445.00     0.005      0.27    0.0   24.5
  PUMP-DAY1                0.39           7      0.00   1300.00   1300.00     0.037      6.77    0.0    0.0
  PUMP-DAY2                0.39           7      0.00   1300.00   1300.00     0.037      6.77    0.0    0.0
  PUMP-FERN1               1.35          12      0.00    867.95   1200.00     0.087     19.71    0.0    1.0
  PUMP-FERN2               1.35          12      0.00    867.95   1200.00     0.087     19.71    0.0    1.0
  PUMP-HWY240_1            0.83          12      0.00   1198.97   1600.00     0.074     12.86    0.0    0.9
  PUMP-HWY240_2            0.83          12      0.00   1198.97   1600.00     0.074     12.86    0.0    0.9
  PUMP-SHER1               0.00           0      0.00      0.00      0.00     0.000      0.00    0.0    0.0
  

  Analysis begun on:  Tue Jun 23 21:22:09 2026
  Analysis ended on:  Tue Jun 23 21:22:34 2026
  Total elapsed time: 00:00:25