
  EPA STORM WATER MANAGEMENT MODEL - VERSION 5.2 (Build 5.2.4)
  ------------------------------------------------------------

  WARNING 01: wet weather time step reduced to recording interval for Rain Gage BANGALOW_GAUGE
  WARNING 03: negative offset ignored for Link W000001751
  WARNING 03: negative offset ignored for Link W000001753
  WARNING 03: negative offset ignored for Link W000001991
  WARNING 03: negative offset ignored for Link W000008446
  WARNING 03: negative offset ignored for Link W000008447
  WARNING 03: negative offset ignored for Link W000008448
  WARNING 03: negative offset ignored for Link W000008454
  WARNING 03: negative offset ignored for Link W000008455
  WARNING 03: negative offset ignored for Link W000008457
  WARNING 03: negative offset ignored for Link W000008458
  WARNING 02: maximum depth increased for Node N103
  WARNING 02: maximum depth increased for Node N473
  
  ****************
  Analysis Options
  ****************
  Flow Units ............... LPS
  Process Models:
    Rainfall/Runoff ........ YES
    RDII ................... YES
    Snowmelt ............... NO
    Groundwater ............ NO
    Flow Routing ........... YES
    Ponding Allowed ........ NO
    Water Quality .......... NO
  Flow Routing Method ...... DYNWAVE
  Surcharge Method ......... EXTRAN
  Starting Date ............ 06/01/2009 00:00:00
  Ending Date .............. 06/05/2009 23:55:00
  Antecedent Dry Days ...... 5.0
  Report Time Step ......... 00:05:00
  Routing Time Step ........ 10.00 sec
  Variable Time Step ....... YES
  Maximum Trials ........... 8
  Number of Threads ........ 1
  Head Tolerance ........... 0.001000 m
  
  
  **********************           Volume        Volume
  Rainfall Dependent I/I        hectare-m      10^6 ltr
  **********************        ---------     ---------
  Sewershed Rainfall ......         2.348        23.477
  RDII Produced ...........         0.099         0.994
  RDII Ratio ..............         0.042
  
  
  **************************        Volume        Volume
  Flow Routing Continuity        hectare-m      10^6 ltr
  **************************     ---------     ---------
  Dry Weather Inflow .......         0.000         0.000
  Wet Weather Inflow .......         0.000         0.000
  Groundwater Inflow .......         0.000         0.000
  RDII Inflow ..............         0.099         0.994
  External Inflow ..........         0.000         0.000
  External Outflow .........         0.111         1.115
  Flooding Loss ............         0.000         0.001
  Evaporation Loss .........         0.000         0.000
  Exfiltration Loss ........         0.000         0.000
  Initial Stored Volume ....         0.003         0.030
  Final Stored Volume ......         0.005         0.045
  Continuity Error (%) .....       -13.397
  
  
  *************************
  Highest Continuity Errors
  *************************
  Node N103 (90.85%)
  Node N472 (-15.80%)
  Node N71 (13.86%)
  Node N469 (-11.73%)
  Node WW_SPS1004 (6.97%)
  
  
  ***************************
  Time-Step Critical Elements
  ***************************
  Link W000001771 (3.13%)
  Link W000001822 (3.04%)
  Link W000001847 (1.81%)
  Link W000001895 (1.31%)
  
  
  ********************************
  Highest Flow Instability Indexes
  ********************************
  Link W000002028 (12)
  Link W999999999F (3)
  Link W000001771 (2)
  Link W000008448 (1)
  
  
  *********************************
  Most Frequent Nonconverging Nodes
  *********************************
  Node BANGALOW_STP (6.19%)
  Node N472 (2.30%)
  Node N476 (1.58%)
  Node N469 (1.50%)
  Node N466 (1.44%)
  
  
  *************************
  Routing Time Step Summary
  *************************
  Minimum Time Step           :     1.29 sec
  Average Time Step           :     9.89 sec
  Maximum Time Step           :    10.00 sec
  % of Time in Steady State   :     0.00
  Average Iterations per Step :     2.76
  % of Steps Not Converging   :     6.19
  Time Step Frequencies       :
     10.000 -  1.585 sec      :   100.00 %
      1.585 -  0.251 sec      :     0.00 %
      0.251 -  0.040 sec      :     0.00 %
      0.040 -  0.006 sec      :     0.00 %
      0.006 -  0.001 sec      :     0.00 %
  
  
  ******************
  Node Depth Summary
  ******************
  
  ---------------------------------------------------------------------------------
                                 Average  Maximum  Maximum  Time of Max    Reported
                                   Depth    Depth      HGL   Occurrence   Max Depth
  Node                 Type       Meters   Meters   Meters  days hr:min      Meters
  ---------------------------------------------------------------------------------
  N1                   JUNCTION     0.00     0.01    45.33     0  13:35        0.01
  N10                  JUNCTION     0.00     0.01    43.15     0  13:39        0.01
  N100                 JUNCTION     0.00     0.01    57.76     0  13:40        0.01
  N101                 JUNCTION     0.00     0.01    61.81     0  13:35        0.01
  N102                 JUNCTION     0.00     0.00    64.15     0  13:35        0.00
  N103                 JUNCTION     3.25     4.37    49.44     2  01:30        4.37
  N104                 JUNCTION     0.01     0.10    40.46     0  14:08        0.09
  N105                 JUNCTION     0.01     0.02    44.87     0  13:43        0.02
  N106                 JUNCTION     0.01     0.07    43.21     0  00:03        0.06
  N107                 JUNCTION     0.00     0.00    42.31     0  13:35        0.00
  N108                 JUNCTION     0.00     0.00    54.12     0  13:35        0.00
  N109                 JUNCTION     0.01     0.06    47.25     0  00:02        0.05
  N11                  JUNCTION     0.00     0.05    42.67     0  20:06        0.05
  N110                 JUNCTION     0.01     0.06    49.13     0  00:02        0.04
  N111                 JUNCTION     0.00     0.00    65.90     0  13:35        0.00
  N112                 JUNCTION     0.00     0.01    53.88     0  13:37        0.01
  N113                 JUNCTION     0.00     0.01    48.99     0  13:40        0.01
  N114                 JUNCTION     0.01     0.11    40.84     0  14:08        0.10
  N115                 JUNCTION     0.00     0.00    52.25     0  13:35        0.00
  N116                 JUNCTION     0.01     0.02    45.11     0  13:40        0.02
  N117                 JUNCTION     0.00     0.01    57.25     0  13:40        0.01
  N118                 JUNCTION     0.00     0.01    56.70     0  13:40        0.01
  N119                 JUNCTION     0.00     0.01    56.26     0  13:40        0.01
  N12                  JUNCTION     0.01     0.08    41.75     1  03:27        0.08
  N120                 JUNCTION     0.00     0.01    49.22     0  13:38        0.01
  N121                 JUNCTION     0.00     0.01    54.96     0  13:36        0.01
  N122                 JUNCTION     0.00     0.02    45.51     0  13:40        0.02
  N123                 JUNCTION     0.00     0.00    56.78     0  13:35        0.00
  N124                 JUNCTION     0.01     0.06    54.43     0  00:02        0.04
  N125                 JUNCTION     0.00     0.00    66.56     0  13:35        0.00
  N126                 JUNCTION     0.00     0.01    49.52     0  13:35        0.01
  N127                 JUNCTION     0.01     0.06    41.12     0  13:49        0.06
  N128                 JUNCTION     0.00     0.01    46.27     0  13:40        0.01
  N129                 JUNCTION     0.00     0.01    56.48     0  13:35        0.01
  N13                  JUNCTION     0.00     0.05    44.22     1  01:58        0.05
  N130                 JUNCTION     0.00     0.00    50.82     0  13:35        0.00
  N131                 JUNCTION     0.00     0.00    59.73     0  13:35        0.00
  N132                 JUNCTION     0.00     0.01    48.18     0  13:40        0.01
  N133                 JUNCTION     0.01     0.08    41.31     1  22:50        0.08
  N134                 JUNCTION     0.00     0.01    52.02     0  13:35        0.01
  N135                 JUNCTION     0.00     0.01    49.40     0  13:35        0.01
  N136                 JUNCTION     0.00     0.01    54.55     0  13:35        0.01
  N137                 JUNCTION     0.01     0.06    42.14     0  13:48        0.06
  N138                 JUNCTION     0.00     0.01    58.16     0  13:36        0.01
  N139                 JUNCTION     0.00     0.02    46.01     0  13:40        0.02
  N14                  JUNCTION     0.01     0.08    41.58     0  14:22        0.08
  N140                 JUNCTION     0.00     0.00    55.64     0  13:35        0.00
  N141                 JUNCTION     0.00     0.00    60.75     0  13:35        0.00
  N142                 JUNCTION     0.00     0.00    59.69     0  13:35        0.00
  N143                 JUNCTION     0.01     0.09    41.65     0  13:39        0.09
  N144                 JUNCTION     0.00     0.01    50.83     0  13:37        0.01
  N145                 JUNCTION     0.01     0.02    49.10     0  13:38        0.02
  N146                 JUNCTION     0.00     0.01    49.05     0  13:40        0.01
  N147                 JUNCTION     0.00     0.01    46.39     0  13:35        0.01
  N148                 JUNCTION     0.01     0.08    55.77     0  00:02        0.05
  N149                 JUNCTION     0.00     0.01    42.46     0  13:40        0.01
  N15                  JUNCTION     0.00     0.01    49.77     0  13:40        0.01
  N150                 JUNCTION     0.00     0.01    44.47     0  13:40        0.01
  N151                 JUNCTION     0.01     0.04    47.09     0  13:48        0.04
  N152                 JUNCTION     0.00     0.01    50.25     0  13:35        0.01
  N153                 JUNCTION     0.01     0.09    42.20     0  13:39        0.09
  N154                 JUNCTION     0.01     0.04    49.08     0  13:48        0.04
  N155                 JUNCTION     0.00     0.01    42.06     0  13:40        0.01
  N156                 JUNCTION     0.01     0.08    41.99     0  13:39        0.07
  N157                 JUNCTION     0.00     0.01    44.21     0  13:40        0.01
  N158                 JUNCTION     0.01     0.06    49.26     0  13:47        0.06
  N159                 JUNCTION     0.01     0.08    42.35     0  13:38        0.08
  N16                  JUNCTION     0.00     0.04    46.89     0  18:38        0.04
  N160                 JUNCTION     0.00     0.01    51.67     0  13:35        0.01
  N161                 JUNCTION     0.00     0.00    64.04     0  13:35        0.00
  N162                 JUNCTION     0.00     0.00    54.72     0  13:35        0.00
  N163                 JUNCTION     0.00     0.00    62.13     0  13:35        0.00
  N164                 JUNCTION     0.00     0.01    43.83     0  13:40        0.01
  N165                 JUNCTION     0.00     0.00    53.28     0  13:35        0.00
  N166                 JUNCTION     0.00     0.00    64.27     0  13:35        0.00
  N167                 JUNCTION     0.00     0.01    41.61     0  13:40        0.01
  N168                 JUNCTION     0.00     0.01    42.07     0  13:40        0.01
  N169                 JUNCTION     0.00     0.00    51.36     0  13:35        0.00
  N17                  JUNCTION     0.00     0.04    50.67     0  23:00        0.04
  N170                 JUNCTION     0.01     0.04    52.77     0  13:47        0.04
  N171                 JUNCTION     0.01     0.05    53.09     0  13:46        0.05
  N172                 JUNCTION     0.00     0.01    43.66     0  13:41        0.01
  N173                 JUNCTION     0.00     0.01    43.03     0  13:43        0.01
  N174                 JUNCTION     0.00     0.01    42.64     0  13:35        0.01
  N175                 JUNCTION     0.00     0.01    43.09     0  13:40        0.01
  N176                 JUNCTION     0.00     0.01    43.25     0  13:40        0.01
  N177                 JUNCTION     0.00     0.00    52.75     0  13:35        0.00
  N178                 JUNCTION     0.00     0.00    52.44     0  13:35        0.00
  N179                 JUNCTION     0.00     0.01    42.44     0  13:40        0.01
  N18                  JUNCTION     0.00     0.04    53.54     0  18:37        0.04
  N180                 JUNCTION     0.00     0.00    50.54     0  13:35        0.00
  N181                 JUNCTION     0.01     0.02    42.17     0  13:40        0.02
  N182                 JUNCTION     0.01     0.02    41.67     0  13:43        0.02
  N183                 JUNCTION     0.00     0.01    45.86     0  13:36        0.01
  N184                 JUNCTION     0.05     0.16    41.34     0  14:02        0.16
  N185                 JUNCTION     0.01     0.06    53.78     0  13:46        0.06
  N186                 JUNCTION     0.00     0.00    42.02     0  13:35        0.00
  N187                 JUNCTION     0.00     0.00    54.53     0  13:35        0.00
  N188                 JUNCTION     0.00     0.01    47.31     0  13:40        0.01
  N189                 JUNCTION     0.01     0.02    41.33     0  13:44        0.02
  N19                  JUNCTION     0.00     0.06    53.72     1  01:27        0.06
  N190                 JUNCTION     0.00     0.01    47.00     0  13:40        0.01
  N191                 JUNCTION     0.01     0.03    41.33     0  17:03        0.03
  N192                 JUNCTION     0.00     0.01    52.05     0  13:40        0.01
  N193                 JUNCTION     0.01     0.02    41.00     0  13:45        0.02
  N194                 JUNCTION     0.00     0.01    52.48     0  13:35        0.01
  N195                 JUNCTION     0.00     0.01    59.21     0  13:36        0.01
  N196                 JUNCTION     0.01     0.02    40.77     0  13:45        0.02
  N197                 JUNCTION     0.00     0.01    58.17     0  13:40        0.01
  N198                 JUNCTION     0.00     0.01    42.96     0  13:44        0.01
  N199                 JUNCTION     0.00     0.01    50.40     0  13:35        0.01
  N2                   JUNCTION     0.00     0.00    46.55     0  13:35        0.00
  N20                  JUNCTION     0.00     0.01    46.43     0  13:40        0.01
  N200                 JUNCTION     0.00     0.01    43.02     0  13:40        0.01
  N201                 JUNCTION     0.00     0.01    63.09     0  13:40        0.01
  N202                 JUNCTION     0.00     0.01    50.00     0  13:36        0.01
  N203                 JUNCTION     0.01     0.02    41.69     0  13:41        0.02
  N204                 JUNCTION     0.01     0.03    40.46     0  13:45        0.03
  N205                 JUNCTION     0.00     0.01    48.52     0  13:37        0.01
  N206                 JUNCTION     0.01     0.06    54.22     0  13:44        0.06
  N207                 JUNCTION     0.21     0.25    40.25     0  13:47        0.25
  N208                 JUNCTION     0.00     0.00    57.47     0  13:37        0.00
  N209                 JUNCTION     0.00     0.00    44.66     0  13:35        0.00
  N21                  JUNCTION     0.00     0.00    48.82     0  13:40        0.00
  N210                 JUNCTION     0.00     0.01    50.35     0  13:40        0.01
  N211                 JUNCTION     0.00     0.01    59.66     0  13:40        0.01
  N212                 JUNCTION     0.00     0.01    63.19     0  13:40        0.01
  N213                 JUNCTION     0.00     0.01    43.55     0  13:40        0.01
  N214                 JUNCTION     0.00     0.01    45.14     0  13:38        0.01
  N215                 JUNCTION     0.00     0.01    49.99     0  13:40        0.01
  N216                 JUNCTION     0.00     0.02    42.50     0  13:45        0.02
  N217                 JUNCTION     0.00     0.01    57.00     0  13:40        0.01
  N218                 JUNCTION     0.00     0.02    43.94     0  13:40        0.02
  N219                 JUNCTION     0.00     0.02    43.47     0  13:40        0.02
  N22                  JUNCTION     0.01     0.07    41.29     0  14:23        0.07
  N220                 JUNCTION     0.00     0.00    60.45     0  13:35        0.00
  N221                 JUNCTION     0.01     0.04    40.05     0  13:46        0.04
  N222                 JUNCTION     0.01     0.06    54.77     0  13:44        0.06
  N223                 JUNCTION     0.00     0.00    46.06     0  13:35        0.00
  N224                 JUNCTION     0.00     0.01    50.90     0  13:37        0.01
  N225                 JUNCTION     0.00     0.01    64.31     0  13:40        0.01
  N226                 JUNCTION     0.00     0.00    63.22     0  13:35        0.00
  N227                 JUNCTION     0.00     0.01    45.36     0  13:36        0.01
  N228                 JUNCTION     0.00     0.01    52.61     0  13:35        0.01
  N229                 JUNCTION     0.00     0.01    57.21     0  13:40        0.01
  N23                  JUNCTION     0.00     0.01    45.81     0  13:40        0.01
  N230                 JUNCTION     0.01     0.02    42.25     0  13:40        0.02
  N231                 JUNCTION     0.00     0.01    53.12     0  13:35        0.01
  N232                 JUNCTION     0.01     0.03    41.55     0  13:45        0.03
  N233                 JUNCTION     0.00     0.01    49.36     0  13:35        0.01
  N234                 JUNCTION     0.00     0.00    57.98     0  13:35        0.00
  N235                 JUNCTION     0.00     0.01    44.68     0  13:38        0.01
  N236                 JUNCTION     0.00     0.01    49.37     0  13:40        0.01
  N237                 JUNCTION     0.00     0.00    61.40     0  13:35        0.00
  N238                 JUNCTION     0.00     0.00    46.46     0  13:35        0.00
  N239                 JUNCTION     0.00     0.00    44.89     0  13:35        0.00
  N24                  JUNCTION     0.00     0.05    55.15     1  01:26        0.05
  N240                 JUNCTION     0.01     0.03    41.98     0  13:45        0.03
  N241                 JUNCTION     0.00     0.01    65.03     0  13:40        0.01
  N242                 JUNCTION     0.00     0.00    65.00     0  13:35        0.00
  N243                 JUNCTION     0.00     0.01    59.68     0  13:40        0.01
  N244                 JUNCTION     0.00     0.00    51.06     0  13:35        0.00
  N245                 JUNCTION     0.00     0.01    45.04     0  13:38        0.01
  N246                 JUNCTION     0.00     0.01    48.95     0  13:36        0.01
  N247                 JUNCTION     0.00     0.00    44.30     0  13:40        0.00
  N248                 JUNCTION     0.00     0.01    56.41     0  13:40        0.01
  N249                 JUNCTION     0.00     0.00    64.10     0  13:35        0.00
  N25                  JUNCTION     0.00     0.00    53.87     0  13:35        0.00
  N250                 JUNCTION     0.01     0.06    55.35     0  13:43        0.06
  N251                 JUNCTION     0.00     0.01    41.45     0  13:40        0.01
  N252                 JUNCTION     0.00     0.02    42.89     0  13:40        0.02
  N253                 JUNCTION     0.00     0.00    45.58     0  13:35        0.00
  N254                 JUNCTION     0.00     0.01    62.67     0  13:40        0.01
  N255                 JUNCTION     0.00     0.01    41.78     0  13:40        0.01
  N256                 JUNCTION     0.00     0.01    43.85     0  13:40        0.01
  N257                 JUNCTION     0.00     0.01    46.55     0  13:38        0.01
  N258                 JUNCTION     0.01     0.02    42.74     0  13:45        0.02
  N259                 JUNCTION     0.00     0.00    68.07     0  13:35        0.00
  N26                  JUNCTION     0.00     0.01    45.26     0  13:40        0.01
  N260                 JUNCTION     0.00     0.01    60.25     0  13:35        0.01
  N261                 JUNCTION     0.00     0.00    52.03     0  13:35        0.00
  N262                 JUNCTION     0.00     0.01    42.75     0  13:40        0.01
  N263                 JUNCTION     0.00     0.01    60.59     0  13:35        0.01
  N264                 JUNCTION     0.00     0.01    54.83     0  13:38        0.01
  N265                 JUNCTION     0.00     0.00    47.20     0  13:35        0.00
  N266                 JUNCTION     0.00     0.00    51.44     0  13:35        0.00
  N267                 JUNCTION     0.00     0.01    49.37     0  13:39        0.01
  N268                 JUNCTION     0.01     0.07    56.21     0  19:40        0.07
  N269                 JUNCTION     0.00     0.01    48.68     0  13:40        0.01
  N27                  JUNCTION     0.00     0.01    44.13     0  13:36        0.01
  N270                 JUNCTION     0.00     0.02    43.47     0  13:40        0.02
  N271                 JUNCTION     0.00     0.00    47.88     0  13:35        0.00
  N272                 JUNCTION     0.01     0.06    56.12     0  13:43        0.06
  N273                 JUNCTION     0.00     0.00    48.78     0  13:35        0.00
  N274                 JUNCTION     0.00     0.01    67.17     0  13:40        0.01
  N275                 JUNCTION     0.00     0.01    43.95     0  13:39        0.01
  N276                 JUNCTION     0.00     0.00    44.78     0  13:35        0.00
  N277                 JUNCTION     0.01     0.03    43.78     0  13:42        0.03
  N278                 JUNCTION     0.01     0.03    43.51     0  13:45        0.03
  N279                 JUNCTION     0.00     0.00    60.71     0  13:35        0.00
  N28                  JUNCTION     0.01     0.06    41.14     0  14:24        0.06
  N280                 JUNCTION     0.00     0.01    63.71     0  13:40        0.01
  N281                 JUNCTION     0.00     0.01    55.30     0  13:37        0.01
  N282                 JUNCTION     0.00     0.01    56.53     0  13:35        0.01
  N283                 JUNCTION     0.00     0.00    57.69     0  13:35        0.00
  N284                 JUNCTION     0.00     0.00    51.84     0  13:35        0.00
  N285                 JUNCTION     0.01     0.02    44.59     0  13:41        0.02
  N286                 JUNCTION     0.00     0.04    58.44     0  13:56        0.04
  N287                 JUNCTION     0.00     0.00    68.92     0  13:35        0.00
  N288                 JUNCTION     0.00     0.01    46.94     0  13:38        0.01
  N289                 JUNCTION     0.00     0.00    55.72     0  13:35        0.00
  N29                  JUNCTION     0.00     0.01    44.99     0  13:40        0.01
  N290                 JUNCTION     0.00     0.01    54.44     0  13:35        0.01
  N291                 JUNCTION     0.01     0.03    44.79     0  13:40        0.03
  N292                 JUNCTION     0.01     0.02    44.78     0  13:41        0.02
  N293                 JUNCTION     0.00     0.00    53.97     0  13:37        0.00
  N294                 JUNCTION     0.00     0.01    50.58     0  13:38        0.01
  N295                 JUNCTION     0.00     0.01    47.44     0  13:43        0.01
  N296                 JUNCTION     0.00     0.01    43.93     0  13:40        0.01
  N297                 JUNCTION     0.01     0.06    58.83     0  13:56        0.06
  N298                 JUNCTION     0.00     0.01    69.52     0  13:36        0.01
  N299                 JUNCTION     0.00     0.01    51.88     0  13:36        0.01
  N3                   JUNCTION     0.00     0.01    45.62     0  13:35        0.01
  N30                  JUNCTION     0.00     0.00    49.13     0  13:35        0.00
  N300                 JUNCTION     0.00     0.02    47.53     0  13:42        0.02
  N301                 JUNCTION     0.00     0.01    47.40     0  13:35        0.01
  N302                 JUNCTION     0.00     0.00    63.45     0  13:35        0.00
  N303                 JUNCTION     0.00     0.01    67.82     0  13:40        0.01
  N304                 JUNCTION     0.00     0.01    51.62     0  13:37        0.01
  N305                 JUNCTION     0.00     0.00    57.15     0  13:35        0.00
  N306                 JUNCTION     0.00     0.01    49.95     0  13:36        0.01
  N307                 JUNCTION     0.00     0.01    51.21     0  13:37        0.01
  N308                 JUNCTION     0.00     0.01    56.47     0  13:40        0.01
  N309                 JUNCTION     0.00     0.01    46.50     0  13:40        0.01
  N31                  JUNCTION     0.00     0.00    49.90     0  13:34        0.00
  N310                 JUNCTION     0.00     0.00    75.09     0  13:35        0.00
  N311                 JUNCTION     0.00     0.01    49.41     0  13:40        0.01
  N312                 JUNCTION     0.00     0.01    48.24     0  13:41        0.01
  N313                 JUNCTION     0.00     0.00    48.55     0  13:35        0.00
  N314                 JUNCTION     0.00     0.01    72.62     0  13:39        0.01
  N315                 JUNCTION     0.00     0.01    54.77     0  13:40        0.01
  N316                 JUNCTION     0.00     0.01    55.17     0  13:40        0.01
  N317                 JUNCTION     0.01     0.02    49.95     0  13:44        0.02
  N318                 JUNCTION     0.00     0.01    48.73     0  13:35        0.01
  N319                 JUNCTION     0.00     0.01    48.77     0  13:40        0.01
  N32                  JUNCTION     0.00     0.01    47.65     0  13:40        0.01
  N320                 JUNCTION     0.00     0.01    57.51     0  13:40        0.01
  N321                 JUNCTION     0.00     0.00    79.11     0  13:35        0.00
  N322                 JUNCTION     0.01     0.03    50.24     0  13:43        0.03
  N323                 JUNCTION     0.00     0.01    72.92     0  13:38        0.01
  N324                 JUNCTION     0.00     0.01    57.73     0  13:37        0.01
  N325                 JUNCTION     0.00     0.00    61.98     0  13:35        0.00
  N326                 JUNCTION     0.00     0.00    63.39     0  13:35        0.00
  N327                 JUNCTION     0.00     0.01    57.95     0  13:36        0.01
  N328                 JUNCTION     0.01     0.03    50.58     0  13:42        0.03
  N329                 JUNCTION     0.00     0.00    62.60     0  13:35        0.00
  N33                  JUNCTION     0.00     0.01    44.82     0  13:37        0.01
  N330                 JUNCTION     0.00     0.00    65.15     0  13:35        0.00
  N331                 JUNCTION     0.00     0.01    73.76     0  13:35        0.01
  N332                 JUNCTION     0.00     0.00    65.83     0  13:35        0.00
  N333                 JUNCTION     0.01     0.03    50.87     0  13:43        0.03
  N334                 JUNCTION     0.00     0.01    54.64     0  13:37        0.01
  N335                 JUNCTION     0.01     0.03    51.01     0  13:42        0.03
  N336                 JUNCTION     0.00     0.01    55.93     0  13:36        0.01
  N337                 JUNCTION     0.00     0.01    57.85     0  13:36        0.01
  N338                 JUNCTION     0.00     0.00    76.08     0  13:35        0.00
  N339                 JUNCTION     0.00     0.01    58.46     0  13:35        0.01
  N34                  JUNCTION     0.00     0.01    46.36     0  13:36        0.01
  N340                 JUNCTION     0.00     0.01    58.13     0  13:35        0.01
  N341                 JUNCTION     0.01     0.02    51.37     0  13:42        0.02
  N342                 JUNCTION     0.00     0.01    59.78     0  13:35        0.01
  N343                 JUNCTION     0.00     0.00    60.20     0  13:35        0.00
  N344                 JUNCTION     0.00     0.01    62.45     0  13:36        0.01
  N345                 JUNCTION     0.01     0.03    51.75     0  13:41        0.03
  N346                 JUNCTION     0.00     0.00    63.55     0  13:35        0.00
  N347                 JUNCTION     0.00     0.00    64.29     0  13:35        0.00
  N348                 JUNCTION     0.00     0.00    64.44     0  13:35        0.00
  N349                 JUNCTION     0.00     0.01    56.44     0  13:40        0.01
  N35                  JUNCTION     0.00     0.00    50.30     0  13:35        0.00
  N350                 JUNCTION     0.00     0.00    66.87     0  13:35        0.00
  N351                 JUNCTION     0.00     0.01    52.19     0  13:41        0.01
  N352                 JUNCTION     0.00     0.00    68.25     0  13:35        0.00
  N353                 JUNCTION     0.00     0.01    57.45     0  13:40        0.01
  N354                 JUNCTION     0.00     0.00    69.34     0  13:35        0.00
  N355                 JUNCTION     0.00     0.01    62.98     0  19:21        0.01
  N356                 JUNCTION     0.00     0.02    57.89     0  13:40        0.02
  N357                 JUNCTION     0.00     0.01    52.74     0  13:40        0.01
  N358                 JUNCTION     0.00     0.01    62.58     0  13:35        0.01
  N359                 JUNCTION     0.00     0.00    68.20     0  19:20        0.00
  N36                  JUNCTION     0.01     0.09    40.93     0  14:01        0.09
  N360                 JUNCTION     0.00     0.00    70.69     0  19:19        0.00
  N361                 JUNCTION     0.00     0.00    71.35     0  18:21        0.00
  N362                 JUNCTION     0.00     0.01    60.32     0  13:38        0.01
  N363                 JUNCTION     0.00     0.00    68.79     0  13:35        0.00
  N364                 JUNCTION     0.00     0.01    53.33     0  13:40        0.01
  N365                 JUNCTION     0.20     0.23    71.47     0  21:05        0.23
  N366                 JUNCTION     0.00     0.01    64.97     0  13:36        0.01
  N367                 JUNCTION     0.00     0.01    61.89     0  13:36        0.01
  N368                 JUNCTION     0.00     0.01    68.46     0  13:35        0.01
  N369                 JUNCTION     0.00     0.01    55.25     0  13:35        0.01
  N37                  JUNCTION     0.00     0.01    46.65     0  13:35        0.01
  N370                 JUNCTION     0.00     0.01    70.09     0  13:35        0.01
  N371                 JUNCTION     0.00     0.01    77.19     0  13:35        0.01
  N372                 JUNCTION     0.00     0.01    76.98     0  13:35        0.01
  N373                 JUNCTION     0.00     0.01    55.68     0  13:35        0.01
  N374                 JUNCTION     0.00     0.01    63.75     0  13:35        0.01
  N375                 JUNCTION     0.00     0.00    75.02     0  13:35        0.00
  N376                 JUNCTION     0.00     0.00    75.56     0  13:35        0.00
  N377                 JUNCTION     0.00     0.01    67.65     0  13:35        0.01
  N378                 JUNCTION     0.00     0.00    59.45     0  13:35        0.00
  N379                 JUNCTION     0.00     0.00    71.05     0  13:35        0.00
  N38                  JUNCTION     0.01     0.06    40.89     0  14:01        0.05
  N380                 JUNCTION     0.00     0.00    62.86     0  13:35        0.00
  N381                 JUNCTION     0.00     0.00    70.60     0  13:35        0.00
  N382                 JUNCTION     0.00     0.00    61.34     0  13:35        0.00
  N383                 JUNCTION     0.00     0.00    45.35     0  13:35        0.00
  N384                 JUNCTION     0.00     0.01    51.02     0  13:34        0.01
  N385                 JUNCTION     0.00     0.00    46.12     0  13:35        0.00
  N386                 JUNCTION     0.00     0.00    46.30     0  13:35        0.00
  N387                 JUNCTION     0.00     0.00    55.53     0  13:35        0.00
  N388                 JUNCTION     0.00     0.00    57.50     0  13:35        0.00
  N389                 JUNCTION     0.00     0.00    55.75     0  13:35        0.00
  N39                  JUNCTION     0.01     0.02    41.52     0  13:45        0.02
  N390                 JUNCTION     0.00     0.00    63.20     0  13:35        0.00
  N391                 JUNCTION     0.00     0.00    74.30     0  13:35        0.00
  N392                 JUNCTION     0.00     0.00    83.36     0  13:35        0.00
  N393                 JUNCTION     0.00     0.00    79.30     0  13:35        0.00
  N394                 JUNCTION     0.00     0.00    52.06     0  13:35        0.00
  N395                 JUNCTION     0.00     0.00    50.40     0  13:35        0.00
  N396                 JUNCTION     0.00     0.00    57.95     0  13:35        0.00
  N397                 JUNCTION     0.00     0.00    68.24     0  13:35        0.00
  N398                 JUNCTION     0.00     0.00    60.33     0  13:35        0.00
  N399                 JUNCTION     0.00     0.00    77.00     0  13:35        0.00
  N4                   JUNCTION     0.00     0.01    45.32     0  13:35        0.01
  N40                  JUNCTION     0.00     0.01    52.02     0  13:35        0.01
  N400                 JUNCTION     0.00     0.00    64.16     0  13:35        0.00
  N401                 JUNCTION     0.00     0.00    69.59     0  13:35        0.00
  N402                 JUNCTION     0.00     0.00    57.67     0  13:35        0.00
  N403                 JUNCTION     0.00     0.00    65.58     0  13:35        0.00
  N404                 JUNCTION     0.00     0.00    73.00     0  13:35        0.00
  N405                 JUNCTION     0.00     0.00    79.96     0  13:35        0.00
  N406                 JUNCTION     0.00     0.00    48.93     0  13:35        0.00
  N407                 JUNCTION     0.00     0.00    59.74     0  13:35        0.00
  N408                 JUNCTION     0.00     0.00    48.67     0  13:35        0.00
  N409                 JUNCTION     0.00     0.00    72.29     0  13:35        0.00
  N41                  JUNCTION     0.00     0.01    48.25     0  13:38        0.01
  N410                 JUNCTION     0.00     0.00    56.46     0  13:35        0.00
  N411                 JUNCTION     0.00     0.00    54.60     0  13:35        0.00
  N412                 JUNCTION     0.00     0.00    42.80     0  13:35        0.00
  N413                 JUNCTION     0.00     0.00    47.65     0  13:35        0.00
  N414                 JUNCTION     0.00     0.01    42.55     0  13:35        0.01
  N415                 JUNCTION     0.00     0.00    42.79     0  13:35        0.00
  N416                 JUNCTION     0.00     0.00    42.69     0  13:35        0.00
  N417                 JUNCTION     0.00     0.00    58.85     0  13:35        0.00
  N418                 JUNCTION     0.00     0.00    56.34     0  13:35        0.00
  N419                 JUNCTION     0.00     0.00    58.55     0  13:35        0.00
  N42                  JUNCTION     0.00     0.00    47.61     0  13:35        0.00
  N420                 JUNCTION     0.00     0.00    57.82     0  13:35        0.00
  N421                 JUNCTION     0.00     0.00    46.65     0  13:35        0.00
  N422                 JUNCTION     0.00     0.00    43.47     0  13:35        0.00
  N423                 JUNCTION     0.00     0.00    44.66     0  13:35        0.00
  N424                 JUNCTION     0.00     0.00    46.02     0  13:35        0.00
  N425                 JUNCTION     0.00     0.00    47.14     0  13:35        0.00
  N426                 JUNCTION     0.00     0.00    45.41     0  13:35        0.00
  N427                 JUNCTION     0.00     0.00    46.80     0  13:35        0.00
  N428                 JUNCTION     0.00     0.00    70.50     0  13:35        0.00
  N429                 JUNCTION     0.00     0.00    54.87     0  13:35        0.00
  N43                  JUNCTION     0.00     0.01    51.17     0  13:35        0.01
  N430                 JUNCTION     0.00     0.00    42.83     0  13:35        0.00
  N431                 JUNCTION     0.00     0.00    43.80     0  13:35        0.00
  N432                 JUNCTION     0.00     0.00    42.42     0  13:35        0.00
  N433                 JUNCTION     0.00     0.00    65.13     0  13:35        0.00
  N434                 JUNCTION     0.00     0.00    59.50     0  13:35        0.00
  N435                 JUNCTION     0.00     0.00    55.66     0  13:35        0.00
  N436                 JUNCTION     0.00     0.00    75.08     0  13:35        0.00
  N437                 JUNCTION     0.20     0.22    71.56     0  19:00        0.22
  N438                 JUNCTION     0.00     0.00    54.30     0  13:35        0.00
  N439                 JUNCTION     0.00     0.00    53.76     0  13:35        0.00
  N44                  JUNCTION     0.00     0.00    46.26     0  13:35        0.00
  N440                 JUNCTION     0.00     0.00    54.34     0  13:35        0.00
  N441                 JUNCTION     0.00     0.00    51.78     0  13:35        0.00
  N442                 JUNCTION     0.00     0.00    52.47     0  13:35        0.00
  N443                 JUNCTION     0.00     0.00    61.69     0  13:35        0.00
  N444                 JUNCTION     0.00     0.00    63.85     0  13:35        0.00
  N445                 JUNCTION     0.00     0.00    63.39     0  13:35        0.00
  N446                 JUNCTION     0.00     0.01    54.08     0  13:35        0.01
  N447                 JUNCTION     0.00     0.00    57.94     0  13:35        0.00
  N448                 JUNCTION     0.00     0.00    59.50     0  13:35        0.00
  N449                 JUNCTION     0.00     0.00    61.83     0  13:35        0.00
  N45                  JUNCTION     0.00     0.01    51.59     0  13:35        0.01
  N450                 JUNCTION     0.00     0.00    52.25     0  13:35        0.00
  N451                 JUNCTION     0.00     0.00    69.62     0  13:35        0.00
  N452                 JUNCTION     0.00     0.00    51.06     0  13:35        0.00
  N453                 JUNCTION     0.00     0.00    57.27     0  13:35        0.00
  N454                 JUNCTION     0.00     0.00    45.04     0  13:35        0.00
  N455                 JUNCTION     0.00     0.00    53.98     0  13:35        0.00
  N456                 JUNCTION     0.00     0.00    64.78     0  13:35        0.00
  N457                 JUNCTION     0.00     0.00    53.98     0  13:35        0.00
  N458                 JUNCTION     0.00     0.00    56.01     0  13:35        0.00
  N459                 JUNCTION     0.00     0.00    49.90     0  13:35        0.00
  N46                  JUNCTION     0.01     0.02    41.99     0  13:45        0.02
  N460                 JUNCTION     0.04     0.05    44.86     0  13:40        0.05
  N461                 JUNCTION     0.00     0.00    60.14     0  13:35        0.00
  N462                 JUNCTION     0.00     0.00    57.10     0  13:35        0.00
  N463                 JUNCTION     0.00     0.00    46.68     0  13:35        0.00
  N464                 JUNCTION     0.82     1.00    47.45     1  05:03        1.00
  N465                 JUNCTION     0.04     0.04    46.13     0  13:35        0.04
  N466                 JUNCTION     2.29     9.78    54.13     1  04:23        9.16
  N467                 JUNCTION     7.39    11.77    63.95     0  18:58       11.04
  N468                 JUNCTION     4.85    24.63    70.35     0  14:30       23.68
  N469                 JUNCTION     1.88    32.49    75.01     1  08:55       28.41
  N47                  JUNCTION     0.00     0.00    43.50     0  13:35        0.00
  N470                 JUNCTION     6.54    15.75    59.65     1  03:54       13.92
  N471                 JUNCTION     2.33    19.84    60.15     2  02:16       19.04
  N472                 JUNCTION     1.35    24.91    68.29     2  08:16       24.49
  N473                 JUNCTION     0.77     1.69    55.65     1  03:54        1.43
  N474                 JUNCTION     0.02     0.07    44.57     0  14:28        0.07
  N475                 JUNCTION     0.01     0.15    64.00     0  00:00        0.04
  N476                 JUNCTION     0.02     1.69    50.59     0  17:04        1.57
  N477                 JUNCTION     0.03     0.12    49.92     0  14:18        0.11
  N478                 JUNCTION     0.00     0.04    61.94     0  19:39        0.04
  N48                  JUNCTION     0.00     0.00    48.29     0  13:35        0.00
  N49                  JUNCTION     0.00     0.01    46.93     0  13:42        0.01
  N5                   JUNCTION     0.00     0.01    44.94     0  13:37        0.01
  N50                  JUNCTION     0.00     0.02    47.49     0  13:40        0.02
  N51                  JUNCTION     0.00     0.00    46.35     0  13:35        0.00
  N52                  JUNCTION     0.01     0.02    42.53     0  13:45        0.02
  N53                  JUNCTION     0.01     0.03    42.56     0  13:45        0.03
  N54                  JUNCTION     0.00     0.00    43.56     0  13:35        0.00
  N55                  JUNCTION     0.00     0.01    49.32     0  13:40        0.01
  N56                  JUNCTION     0.00     0.00    46.04     0  13:35        0.00
  N57                  JUNCTION     0.00     0.01    49.51     0  13:38        0.01
  N58                  JUNCTION     0.00     0.01    52.43     0  13:37        0.01
  N59                  JUNCTION     0.01     0.02    42.91     0  13:45        0.02
  N6                   JUNCTION     0.00     0.01    44.87     0  13:35        0.01
  N60                  JUNCTION     0.00     0.01    53.21     0  13:36        0.01
  N61                  JUNCTION     0.01     0.03    42.97     0  13:45        0.03
  N62                  JUNCTION     0.00     0.00    47.26     0  13:35        0.00
  N63                  JUNCTION     0.29     0.33    52.73     0  19:00        0.33
  N64                  JUNCTION     0.00     0.01    53.52     0  13:35        0.01
  N65                  JUNCTION     0.00     0.01    44.24     0  13:40        0.01
  N66                  JUNCTION     0.00     0.01    46.10     0  13:40        0.01
  N67                  JUNCTION     0.00     0.01    54.51     0  13:40        0.01
  N68                  JUNCTION     0.00     0.01    55.16     0  13:40        0.01
  N69                  JUNCTION     0.00     0.01    40.49     0  13:40        0.01
  N7                   JUNCTION     0.00     0.01    44.71     0  13:37        0.01
  N70                  JUNCTION     0.00     0.02    44.16     0  13:45        0.02
  N71                  JUNCTION     0.41     0.48    51.55     0  20:10        0.48
  N72                  JUNCTION     0.00     0.01    60.25     0  13:36        0.01
  N73                  JUNCTION     0.00     0.01    60.69     0  13:35        0.01
  N74                  JUNCTION     0.01     0.02    44.32     0  13:43        0.02
  N75                  JUNCTION     0.00     0.01    59.80     0  13:38        0.01
  N76                  JUNCTION     0.00     0.01    42.62     0  13:40        0.01
  N77                  JUNCTION     0.00     0.00    56.15     0  13:35        0.00
  N78                  JUNCTION     0.00     0.01    41.15     0  13:40        0.01
  N79                  JUNCTION     0.00     0.01    49.94     0  13:40        0.01
  N8                   JUNCTION     0.00     0.01    44.08     0  13:38        0.01
  N80                  JUNCTION     0.00     0.01    55.53     0  13:40        0.01
  N81                  JUNCTION     0.00     0.01    39.86     0  13:42        0.01
  N82                  JUNCTION     0.00     0.01    61.39     0  13:35        0.01
  N83                  JUNCTION     0.00     0.00    42.28     0  13:35        0.00
  N84                  JUNCTION     0.03     0.26    39.76     0  14:10        0.25
  N85                  JUNCTION     0.00     0.00    54.49     0  13:35        0.00
  N86                  JUNCTION     0.00     0.01    59.09     0  13:39        0.01
  N87                  JUNCTION     0.01     0.09    41.40     0  00:04        0.06
  N88                  JUNCTION     0.00     0.01    41.67     0  13:40        0.01
  N89                  JUNCTION     0.00     0.01    51.10     0  13:39        0.01
  N9                   JUNCTION     0.00     0.00    44.46     0  13:35        0.00
  N90                  JUNCTION     0.00     0.01    41.20     0  13:40        0.01
  N91                  JUNCTION     0.02     0.30    39.93     0  14:09        0.26
  N92                  JUNCTION     0.01     0.12    43.43     0  00:03        0.10
  N93                  JUNCTION     0.00     0.00    54.48     0  13:35        0.00
  N94                  JUNCTION     0.01     0.07    40.11     0  14:08        0.07
  N95                  JUNCTION     0.00     0.00    53.83     0  13:35        0.00
  N96                  JUNCTION     0.00     0.01    58.72     0  13:40        0.01
  N97                  JUNCTION     0.00     0.00    59.00     0  13:35        0.00
  N98                  JUNCTION     0.00     0.01    55.81     0  13:40        0.01
  N99                  JUNCTION     0.01     0.08    42.54     0  00:04        0.07
  BANGALOW_STP         OUTFALL      0.01     0.07    44.47     0  14:29        0.07
  WW_SPS1001           STORAGE      0.54     0.95    38.91     0  22:51        0.94
  WW_SPS1002           STORAGE      0.57     0.78    41.33     0  13:35        0.78
  WW_SPS1003           STORAGE      0.78     1.19    38.10     1  02:10        1.17
  WW_SPS1004           STORAGE      0.47     0.66    41.50     1  05:06        0.66
  WW_SPS1005           STORAGE      0.38     0.66    41.36     0  13:52        0.66
  WW_SPS1006           STORAGE      0.50     0.91    48.69     0  13:54        0.90
  WW_SPS1007           STORAGE      0.68     0.99    39.62     1  06:17        0.98
  
  
  *******************
  Node Inflow Summary
  *******************
  
  -------------------------------------------------------------------------------------------------
                                  Maximum  Maximum                  Lateral       Total        Flow
                                  Lateral    Total  Time of Max      Inflow      Inflow     Balance
                                   Inflow   Inflow   Occurrence      Volume      Volume       Error
  Node                 Type           LPS      LPS  days hr:min    10^6 ltr    10^6 ltr     Percent
  -------------------------------------------------------------------------------------------------
  N1                   JUNCTION      0.03     0.06     0  13:35     0.00213     0.00427       0.009
  N10                  JUNCTION      0.03     0.45     0  13:38     0.00213      0.0341      -0.029
  N100                 JUNCTION      0.03     0.31     0  13:40     0.00213      0.0235       0.004
  N101                 JUNCTION      0.03     0.06     0  13:35     0.00213     0.00426       0.025
  N102                 JUNCTION      0.03     0.06     0  13:35     0.00213     0.00426       0.014
  N103                 JUNCTION      0.03     0.06     0  20:10     0.00213     0.00548     992.972
  N104                 JUNCTION      0.03    16.65     0  14:08     0.00213       0.463       0.001
  N105                 JUNCTION      0.03     0.68     0  13:40     0.00213      0.0512       0.002
  N106                 JUNCTION      0.03    22.33     0  00:03     0.00213       0.277      -0.006
  N107                 JUNCTION      0.03     0.03     0  13:30     0.00213     0.00213       0.006
  N108                 JUNCTION      0.03     0.06     0  13:35     0.00213     0.00427       0.016
  N109                 JUNCTION      0.03    24.19     0  00:02     0.00213       0.273       0.359
  N11                  JUNCTION      0.03     7.92     1  01:58     0.00213      0.0926       0.139
  N110                 JUNCTION      0.03    24.07     0  00:02     0.00213        0.27      -0.008
  N111                 JUNCTION      0.03     0.03     0  13:30     0.00213     0.00213       0.030
  N112                 JUNCTION      0.03     0.23     0  13:36     0.00213      0.0171       0.001
  N113                 JUNCTION      0.03     0.17     0  13:38     0.00213      0.0133       0.006
  N114                 JUNCTION      0.03    19.68     0  14:07     0.00213       0.417      -0.449
  N115                 JUNCTION      0.03     0.08     0  13:35     0.00213      0.0064       0.013
  N116                 JUNCTION      0.03     0.65     0  13:40     0.00213       0.049       0.002
  N117                 JUNCTION      0.03     0.37     0  13:40     0.00213      0.0277       0.004
  N118                 JUNCTION      0.03     0.42     0  13:40     0.00213       0.032       0.003
  N119                 JUNCTION      0.03     0.17     0  13:35     0.00213      0.0128       0.010
  N12                  JUNCTION      0.03     7.82     0  20:06     0.00213      0.0946       0.043
  N120                 JUNCTION      0.03     0.14     0  13:35     0.00213      0.0107       0.010
  N121                 JUNCTION      0.03     0.20     0  13:35     0.00213      0.0149       0.005
  N122                 JUNCTION      0.03     0.62     0  13:40     0.00213      0.0469       0.002
  N123                 JUNCTION      0.03     0.06     0  13:35     0.00213     0.00427       0.020
  N124                 JUNCTION      0.03    24.25     0  00:02     0.00213       0.268      -0.020
  N125                 JUNCTION      0.03     0.03     0  13:30     0.00213     0.00213       0.039
  N126                 JUNCTION      0.03     0.11     0  13:35     0.00213     0.00853       0.013
  N127                 JUNCTION      0.03     5.98     0  13:49     0.00213        0.23       2.166
  N128                 JUNCTION      0.03     0.20     0  13:40     0.00213      0.0154       0.006
  N129                 JUNCTION      0.03     0.11     0  13:35     0.00213     0.00853       0.002
  N13                  JUNCTION      0.03     7.89     0  18:38     0.00213      0.0907       0.320
  N130                 JUNCTION      0.03     0.08     0  13:35     0.00213      0.0064       0.014
  N131                 JUNCTION      0.03     0.08     0  13:35     0.00213      0.0064       0.012
  N132                 JUNCTION      0.03     0.51     0  13:40     0.00213      0.0384       0.002
  N133                 JUNCTION      0.03    15.23     0  13:40     0.00213       0.189       0.169
  N134                 JUNCTION      0.03     0.14     0  13:35     0.00213      0.0107       0.010
  N135                 JUNCTION      0.03     0.11     0  13:35     0.00213     0.00853       0.002
  N136                 JUNCTION      0.03     0.11     0  13:35     0.00213     0.00853       0.008
  N137                 JUNCTION      0.03     6.00     0  13:48     0.00213       0.228       0.004
  N138                 JUNCTION      0.03     0.11     0  13:35     0.00213     0.00853       0.003
  N139                 JUNCTION      0.03     0.59     0  13:40     0.00213      0.0448       0.001
  N14                  JUNCTION      0.03     7.56     0  14:21     0.00213      0.0967      -0.143
  N140                 JUNCTION      0.03     0.08     0  13:35     0.00213      0.0064       0.014
  N141                 JUNCTION      0.03     0.06     0  13:35     0.00213     0.00426       0.021
  N142                 JUNCTION      0.03     0.06     0  13:35     0.00213     0.00427       0.015
  N143                 JUNCTION      0.03    15.03     0  13:39     0.00213       0.187       0.102
  N144                 JUNCTION      0.03     0.17     0  13:35     0.00213      0.0128       0.007
  N145                 JUNCTION      0.03     0.34     0  13:35     0.00213      0.0256       0.002
  N146                 JUNCTION      0.03     0.48     0  13:38     0.00213      0.0362       0.003
  N147                 JUNCTION      0.03     0.06     0  13:35     0.00213     0.00427      -0.000
  N148                 JUNCTION      0.03    31.29     0  00:00     0.00213       0.236       0.651
  N149                 JUNCTION      0.03     0.11     0  13:35     0.00213     0.00853       0.009
  N15                  JUNCTION      0.03     0.06     0  13:35     0.00213     0.00427       0.025
  N150                 JUNCTION      0.03     0.23     0  13:40     0.00213      0.0176       0.006
  N151                 JUNCTION      0.03     6.04     0  13:48     0.00213       0.226      -0.005
  N152                 JUNCTION      0.03     0.14     0  13:35     0.00213      0.0107       0.001
  N153                 JUNCTION      0.03    14.78     0  13:38     0.00213       0.184       0.177
  N154                 JUNCTION      0.03     6.00     0  13:47     0.00213       0.222      -0.013
  N155                 JUNCTION      0.03     0.14     0  13:40     0.00213      0.0107       0.005
  N156                 JUNCTION      0.03    14.89     0  13:39     0.00213       0.186       0.399
  N157                 JUNCTION      0.03     0.25     0  13:40     0.00213      0.0197       0.005
  N158                 JUNCTION      0.03     6.07     0  13:47     0.00213        0.22       0.026
  N159                 JUNCTION      0.03    14.96     0  13:38     0.00213       0.183       0.386
  N16                  JUNCTION      0.03     7.98     0  18:38     0.00213      0.0891       0.564
  N160                 JUNCTION      0.03     0.11     0  13:35     0.00213     0.00853       0.010
  N161                 JUNCTION      0.03     0.03     0  13:30     0.00213     0.00213       0.036
  N162                 JUNCTION      0.03     0.06     0  13:35     0.00213     0.00426       0.010
  N163                 JUNCTION      0.03     0.08     0  13:35     0.00213      0.0064       0.006
  N164                 JUNCTION      0.03     0.28     0  13:40     0.00213      0.0218       0.005
  N165                 JUNCTION      0.03     0.08     0  13:35     0.00213      0.0064       0.001
  N166                 JUNCTION      0.03     0.06     0  13:35     0.00213     0.00427       0.017
  N167                 JUNCTION      0.03     0.23     0  13:40     0.00213      0.0171      -0.015
  N168                 JUNCTION      0.03     0.06     0  13:35     0.00213     0.00427       0.008
  N169                 JUNCTION      0.03     0.08     0  13:35     0.00213      0.0064       0.033
  N17                  JUNCTION      0.03     7.91     1  01:57     0.00213      0.0867      -0.259
  N170                 JUNCTION      0.03     6.26     0  13:46     0.00213       0.211      -0.011
  N171                 JUNCTION      0.03     6.23     0  13:46     0.00213       0.209      -0.007
  N172                 JUNCTION      0.03     0.31     0  13:40     0.00213       0.024      -0.001
  N173                 JUNCTION      0.03     0.39     0  13:40     0.00213      0.0298       0.010
  N174                 JUNCTION      0.03     0.06     0  13:35     0.00213     0.00426       0.024
  N175                 JUNCTION      0.03     0.17     0  13:35     0.00213      0.0128       0.005
  N176                 JUNCTION      0.03     0.23     0  13:40     0.00213      0.0171       0.006
  N177                 JUNCTION      0.03     0.06     0  13:35     0.00213     0.00426       0.019
  N178                 JUNCTION      0.03     0.06     0  13:35     0.00213     0.00426       0.021
  N179                 JUNCTION      0.03     0.25     0  13:40     0.00213      0.0192       0.005
  N18                  JUNCTION      0.03     8.00     0  13:55     0.00213      0.0849       0.378
  N180                 JUNCTION      0.03     0.08     0  13:35     0.00213      0.0064       0.013
  N181                 JUNCTION      0.03     0.73     0  13:40     0.00213      0.0554      -0.003
  N182                 JUNCTION      0.03     0.76     0  13:40     0.00213      0.0576       0.005
  N183                 JUNCTION      0.03     0.11     0  13:35     0.00213     0.00853       0.009
  N184                 JUNCTION      0.03     1.86     0  13:36     0.00213       0.122      -4.829
  N185                 JUNCTION      0.03     6.88     0  13:45     0.00213       0.207      -0.039
  N186                 JUNCTION      0.03     0.03     0  13:30     0.00213     0.00213       0.047
  N187                 JUNCTION      0.03     0.06     0  13:35     0.00213     0.00426       0.019
  N188                 JUNCTION      0.03     0.20     0  13:40     0.00213      0.0149       0.006
  N189                 JUNCTION      0.03     0.79     0  13:43     0.00213      0.0597      -0.001
  N19                  JUNCTION      0.03     7.72     0  22:30     0.00213      0.0837       1.056
  N190                 JUNCTION      0.03     0.37     0  13:40     0.00213      0.0277       0.003
  N191                 JUNCTION      0.03     1.32     0  13:41     0.00213         0.1       0.021
  N192                 JUNCTION      0.03     0.17     0  13:40     0.00213      0.0128       0.002
  N193                 JUNCTION      0.03     0.84     0  13:44     0.00213       0.064       0.003
  N194                 JUNCTION      0.03     0.08     0  13:35     0.00213      0.0064       0.018
  N195                 JUNCTION      0.03     0.08     0  13:35     0.00213      0.0064       0.013
  N196                 JUNCTION      0.03     0.87     0  13:45     0.00213      0.0661       0.002
  N197                 JUNCTION      0.03     0.14     0  13:40     0.00213      0.0107       0.004
  N198                 JUNCTION      0.03     0.39     0  13:40     0.00213      0.0303       0.004
  N199                 JUNCTION      0.03     0.11     0  13:35     0.00213     0.00853       0.011
  N2                   JUNCTION      0.03     0.06     0  13:35     0.00213     0.00426       0.021
  N20                  JUNCTION      0.03     0.11     0  13:40     0.00213     0.00853       0.006
  N200                 JUNCTION      0.03     0.45     0  13:40     0.00213      0.0341       0.003
  N201                 JUNCTION      0.03     0.11     0  13:40     0.00213     0.00853       0.009
  N202                 JUNCTION      0.03     0.14     0  13:35     0.00213      0.0107       0.011
  N203                 JUNCTION      0.03     1.07     0  13:40     0.00213       0.081       0.001
  N204                 JUNCTION      0.03     0.90     0  13:45     0.00213      0.0682       0.048
  N205                 JUNCTION      0.03     0.17     0  13:35     0.00213      0.0128       0.006
  N206                 JUNCTION      0.03     7.04     0  13:44     0.00213       0.204      -0.036
  N207                 JUNCTION      0.03     0.93     0  13:45     0.00213      0.0733       3.175
  N208                 JUNCTION      0.03     0.11     0  13:35     0.00213     0.00853      -0.000
  N209                 JUNCTION      0.03     0.06     0  13:35     0.00213     0.00427       0.000
  N21                  JUNCTION      0.03     0.08     0  13:40     0.00213      0.0064       0.014
  N210                 JUNCTION      0.03     0.34     0  13:40     0.00213      0.0256       0.004
  N211                 JUNCTION      0.03     0.25     0  13:40     0.00213      0.0192       0.004
  N212                 JUNCTION      0.03     0.20     0  13:40     0.00213      0.0149       0.005
  N213                 JUNCTION      0.03     0.06     0  13:35     0.00213     0.00426       0.023
  N214                 JUNCTION      0.03     0.23     0  13:35     0.00213      0.0171       0.006
  N215                 JUNCTION      0.03     0.14     0  13:35     0.00213      0.0107       0.002
  N216                 JUNCTION      0.03     0.42     0  13:44     0.00213      0.0325       0.003
  N217                 JUNCTION      0.03     0.37     0  13:40     0.00213      0.0277       0.003
  N218                 JUNCTION      0.03     0.40     0  13:38     0.00213      0.0298       0.005
  N219                 JUNCTION      0.03     0.42     0  13:40     0.00213       0.032       0.003
  N22                  JUNCTION      0.03     6.44     0  14:22     0.00213      0.0989       0.737
  N220                 JUNCTION      0.03     0.08     0  13:35     0.00213      0.0064       0.001
  N221                 JUNCTION      0.03     2.97     0  13:46     0.00213       0.227      -0.979
  N222                 JUNCTION      0.03     6.78     0  13:43     0.00213       0.175       0.008
  N223                 JUNCTION      0.03     0.06     0  13:35     0.00213     0.00426       0.000
  N224                 JUNCTION      0.03     0.06     0  13:35     0.00213     0.00427       0.022
  N225                 JUNCTION      0.03     0.08     0  13:35     0.00213      0.0064       0.015
  N226                 JUNCTION      0.03     0.06     0  13:35     0.00213     0.00427       0.016
  N227                 JUNCTION      0.03     0.08     0  13:35     0.00213      0.0064       0.015
  N228                 JUNCTION      0.03     0.14     0  13:35     0.00213      0.0107       0.007
  N229                 JUNCTION      0.03     0.11     0  13:35     0.00213     0.00853       0.014
  N23                  JUNCTION      0.03     0.14     0  13:40     0.00213      0.0107       0.004
  N230                 JUNCTION      0.03     1.04     0  13:40     0.00213      0.0789       0.001
  N231                 JUNCTION      0.03     0.11     0  13:35     0.00213     0.00853       0.004
  N232                 JUNCTION      0.03     1.79     0  13:45     0.00213       0.137       0.001
  N233                 JUNCTION      0.03     0.17     0  13:35     0.00213      0.0128       0.009
  N234                 JUNCTION      0.03     0.08     0  13:35     0.00213      0.0064       0.011
  N235                 JUNCTION      0.03     0.42     0  13:38     0.00213       0.032      -0.001
  N236                 JUNCTION      0.03     0.34     0  13:40     0.00213      0.0256       0.004
  N237                 JUNCTION      0.03     0.06     0  13:35     0.00213     0.00427       0.019
  N238                 JUNCTION      0.03     0.03     0  13:30     0.00213     0.00213       0.044
  N239                 JUNCTION      0.03     0.03     0  13:30     0.00213     0.00213       0.032
  N24                  JUNCTION      0.03     7.47     1  01:25     0.00213      0.0819       0.441
  N240                 JUNCTION      0.03     1.77     0  13:45     0.00213       0.135       0.001
  N241                 JUNCTION      0.03     0.17     0  13:40     0.00213      0.0128       0.007
  N242                 JUNCTION      0.03     0.06     0  13:35     0.00213     0.00427       0.025
  N243                 JUNCTION      0.03     0.34     0  13:40     0.00213      0.0256       0.004
  N244                 JUNCTION      0.03     0.03     0  13:30     0.00213     0.00213       0.030
  N245                 JUNCTION      0.03     0.40     0  13:35     0.00213      0.0299       0.006
  N246                 JUNCTION      0.03     0.25     0  13:35     0.00213      0.0192       0.005
  N247                 JUNCTION      0.03     0.03     0  13:30     0.00213     0.00213       0.047
  N248                 JUNCTION      0.03     0.17     0  13:40     0.00213      0.0128       0.005
  N249                 JUNCTION      0.03     0.06     0  13:35     0.00213     0.00427       0.011
  N25                  JUNCTION      0.03     0.06     0  13:35     0.00213     0.00426      -0.004
  N250                 JUNCTION      0.03     6.89     0  13:43     0.00213       0.173       0.061
  N251                 JUNCTION      0.03     0.23     0  13:40     0.00213      0.0171      -0.013
  N252                 JUNCTION      0.03     0.59     0  13:40     0.00213      0.0448       0.004
  N253                 JUNCTION      0.03     0.06     0  13:35     0.00213     0.00427       0.001
  N254                 JUNCTION      0.03     0.31     0  13:40     0.00213      0.0235       0.004
  N255                 JUNCTION      0.03     0.17     0  13:40     0.00213      0.0128       0.008
  N256                 JUNCTION      0.03     0.11     0  13:35     0.00213     0.00853       0.011
  N257                 JUNCTION      0.03     0.08     0  13:35     0.00213      0.0064       0.014
  N258                 JUNCTION      0.03     1.32     0  13:45     0.00213         0.1      -0.000
  N259                 JUNCTION      0.03     0.03     0  13:30     0.00213     0.00213       0.011
  N26                  JUNCTION      0.03     0.17     0  13:40     0.00213      0.0128       0.001
  N260                 JUNCTION      0.03     0.11     0  13:35     0.00213     0.00853       0.009
  N261                 JUNCTION      0.03     0.06     0  13:35     0.00213     0.00427       0.002
  N262                 JUNCTION      0.03     0.14     0  13:40     0.00213      0.0107       0.009
  N263                 JUNCTION      0.03     0.06     0  13:35     0.00213     0.00426       0.024
  N264                 JUNCTION      0.03     0.17     0  13:37     0.00213      0.0128       0.007
  N265                 JUNCTION      0.03     0.03     0  13:30     0.00213     0.00213       0.014
  N266                 JUNCTION      0.03     0.08     0  13:35     0.00213      0.0064       0.007
  N267                 JUNCTION      0.03     0.20     0  13:39     0.00213      0.0149       0.006
  N268                 JUNCTION      0.03     7.61     0  13:23     0.00213       0.169       0.648
  N269                 JUNCTION      0.03     0.56     0  13:40     0.00213      0.0426       0.002
  N27                  JUNCTION      0.03     0.28     0  13:35     0.00213      0.0213      -0.002
  N270                 JUNCTION      0.03     0.56     0  13:38     0.00213      0.0426       0.000
  N271                 JUNCTION      0.03     0.11     0  13:35     0.00213     0.00853      -0.001
  N272                 JUNCTION      0.03     7.95     0  13:57     0.00213       0.172       0.762
  N273                 JUNCTION      0.03     0.06     0  13:35     0.00213     0.00426       0.020
  N274                 JUNCTION      0.03     0.14     0  13:35     0.00213      0.0107       0.009
  N275                 JUNCTION      0.03     0.48     0  13:37     0.00213      0.0362       0.002
  N276                 JUNCTION      0.03     0.06     0  13:35     0.00213     0.00426      -0.001
  N277                 JUNCTION      0.03     1.12     0  13:41     0.00213      0.0853      -0.000
  N278                 JUNCTION      0.03     1.29     0  13:42     0.00213      0.0981       0.002
  N279                 JUNCTION      0.03     0.08     0  13:35     0.00213      0.0064       0.007
  N28                  JUNCTION      0.03     5.96     0  14:23     0.00213       0.122       0.037
  N280                 JUNCTION      0.03     0.28     0  13:40     0.00213      0.0213       0.005
  N281                 JUNCTION      0.03     0.14     0  13:35     0.00213      0.0107       0.010
  N282                 JUNCTION      0.03     0.06     0  13:35     0.00213     0.00427       0.023
  N283                 JUNCTION      0.03     0.11     0  13:35     0.00213     0.00853       0.003
  N284                 JUNCTION      0.03     0.06     0  13:35     0.00213     0.00426       0.018
  N285                 JUNCTION      0.03     1.10     0  13:41     0.00213      0.0832       0.000
  N286                 JUNCTION      0.03     7.64     0  13:56     0.00213       0.167       0.087
  N287                 JUNCTION      0.03     0.06     0  13:35     0.00213     0.00427       0.021
  N288                 JUNCTION      0.03     0.34     0  13:37     0.00213      0.0256       0.004
  N289                 JUNCTION      0.03     0.08     0  13:35     0.00213      0.0064       0.002
  N29                  JUNCTION      0.03     0.42     0  13:40     0.00213       0.032       0.003
  N290                 JUNCTION      0.03     0.17     0  13:35     0.00213      0.0128       0.001
  N291                 JUNCTION      0.03     1.04     0  13:41     0.00213      0.0789       0.002
  N292                 JUNCTION      0.03     1.07     0  13:40     0.00213       0.081       0.000
  N293                 JUNCTION      0.03     0.06     0  13:35     0.00213     0.00426       0.015
  N294                 JUNCTION      0.03     0.25     0  13:37     0.00213      0.0192       0.003
  N295                 JUNCTION      0.03     0.45     0  13:42     0.00213      0.0341       0.001
  N296                 JUNCTION      0.03     0.14     0  13:40     0.00213      0.0107       0.009
  N297                 JUNCTION      0.03     7.57     0  14:32     0.00213       0.166       0.677
  N298                 JUNCTION      0.03     0.11     0  13:35     0.00213     0.00853       0.011
  N299                 JUNCTION      0.03     0.20     0  13:35     0.00213      0.0149       0.007
  N3                   JUNCTION      0.03     0.08     0  13:35     0.00213      0.0064       0.006
  N30                  JUNCTION      0.03     0.08     0  13:35     0.00213      0.0064       0.009
  N300                 JUNCTION      0.03     0.42     0  13:40     0.00213       0.032       0.002
  N301                 JUNCTION      0.03     0.06     0  13:35     0.00213     0.00426       0.006
  N302                 JUNCTION      0.03     0.03     0  13:30     0.00213     0.00213       0.037
  N303                 JUNCTION      0.03     0.20     0  13:39     0.00213      0.0149       0.007
  N304                 JUNCTION      0.03     0.23     0  13:36     0.00213      0.0171       0.006
  N305                 JUNCTION      0.03     0.03     0  13:30     0.00213     0.00213       0.004
  N306                 JUNCTION      0.03     0.06     0  13:35     0.00213     0.00427       0.026
  N307                 JUNCTION      0.03     0.17     0  13:35     0.00213      0.0128       0.002
  N308                 JUNCTION      0.03     0.06     0  13:35     0.00213     0.00427       0.031
  N309                 JUNCTION      0.03     0.11     0  13:35     0.00213     0.00853       0.013
  N31                  JUNCTION      0.03     0.06     0  13:35     0.00213     0.00426       0.004
  N310                 JUNCTION      0.03     0.08     0  13:35     0.00213      0.0064       0.010
  N311                 JUNCTION      0.03     0.25     0  13:36     0.00213      0.0192       0.006
  N312                 JUNCTION      0.03     0.34     0  13:40     0.00213      0.0256       0.003
  N313                 JUNCTION      0.03     0.08     0  13:35     0.00213      0.0064       0.021
  N314                 JUNCTION      0.03     0.17     0  13:38     0.00213      0.0128       0.005
  N315                 JUNCTION      0.03     0.39     0  13:40     0.00213      0.0299       0.002
  N316                 JUNCTION      0.03     0.37     0  13:40     0.00213      0.0277       0.001
  N317                 JUNCTION      0.03     1.74     0  13:43     0.00213       0.136      -0.003
  N318                 JUNCTION      0.03     0.06     0  13:35     0.00213     0.00427       0.024
  N319                 JUNCTION      0.03     0.28     0  13:40     0.00213      0.0213      -0.000
  N32                  JUNCTION      0.03     0.23     0  13:38     0.00213      0.0171       0.003
  N320                 JUNCTION      0.03     0.28     0  13:37     0.00213      0.0213       0.005
  N321                 JUNCTION      0.03     0.06     0  13:35     0.00213     0.00426       0.019
  N322                 JUNCTION      0.03     1.72     0  13:42     0.00213       0.134       0.001
  N323                 JUNCTION      0.03     0.14     0  13:35     0.00213      0.0107       0.010
  N324                 JUNCTION      0.03     0.25     0  13:35     0.00213      0.0192       0.001
  N325                 JUNCTION      0.03     0.08     0  13:35     0.00213      0.0064      -0.001
  N326                 JUNCTION      0.03     0.06     0  13:35     0.00213     0.00427       0.011
  N327                 JUNCTION      0.03     0.14     0  13:35     0.00213      0.0107       0.006
  N328                 JUNCTION      0.03     1.69     0  13:41     0.00213       0.132       0.001
  N329                 JUNCTION      0.03     0.11     0  13:35     0.00213     0.00853       0.000
  N33                  JUNCTION      0.03     0.17     0  13:35     0.00213      0.0127       0.004
  N330                 JUNCTION      0.03     0.08     0  13:35     0.00213      0.0064       0.006
  N331                 JUNCTION      0.03     0.08     0  13:35     0.00213      0.0064       0.016
  N332                 JUNCTION      0.03     0.06     0  13:35     0.00213     0.00427       0.013
  N333                 JUNCTION      0.03     1.13     0  13:42     0.00213      0.0891       0.002
  N334                 JUNCTION      0.03     0.54     0  13:37     0.00213      0.0405      -0.002
  N335                 JUNCTION      0.03     1.10     0  13:42     0.00213       0.087       0.002
  N336                 JUNCTION      0.03     0.51     0  13:36     0.00213      0.0384       0.001
  N337                 JUNCTION      0.03     0.45     0  13:35     0.00213      0.0341       0.001
  N338                 JUNCTION      0.03     0.06     0  13:35     0.00213     0.00426       0.018
  N339                 JUNCTION      0.03     0.08     0  13:35     0.00213      0.0064       0.004
  N34                  JUNCTION      0.03     0.11     0  13:35     0.00213     0.00853       0.009
  N340                 JUNCTION      0.03     0.20     0  13:35     0.00213      0.0149       0.007
  N341                 JUNCTION      0.03     1.07     0  13:41     0.00213      0.0848      -0.000
  N342                 JUNCTION      0.03     0.23     0  13:35     0.00213      0.0171       0.003
  N343                 JUNCTION      0.03     0.06     0  13:35     0.00213     0.00426       0.008
  N344                 JUNCTION      0.03     0.17     0  13:35     0.00213      0.0128       0.005
  N345                 JUNCTION      0.03     1.04     0  13:40     0.00213      0.0827       0.011
  N346                 JUNCTION      0.03     0.08     0  13:35     0.00213      0.0064       0.007
  N347                 JUNCTION      0.03     0.14     0  13:35     0.00213      0.0107       0.004
  N348                 JUNCTION      0.03     0.06     0  13:35     0.00213     0.00427       0.010
  N349                 JUNCTION      0.03     0.76     0  13:40     0.00213      0.0614      -0.016
  N35                  JUNCTION      0.03     0.03     0  13:30     0.00213     0.00213       0.045
  N350                 JUNCTION      0.03     0.11     0  13:35     0.00213     0.00853       0.005
  N351                 JUNCTION      0.03     0.25     0  13:40     0.00213      0.0192       0.003
  N352                 JUNCTION      0.03     0.08     0  13:35     0.00213      0.0064       0.007
  N353                 JUNCTION      0.03     0.73     0  13:40     0.00213      0.0593       0.027
  N354                 JUNCTION      0.03     0.06     0  13:35     0.00213     0.00426       0.012
  N355                 JUNCTION      0.03     0.13     0  19:20     0.00213      0.0123       0.083
  N356                 JUNCTION      0.03     0.51     0  13:38     0.00213      0.0384       0.004
  N357                 JUNCTION      0.03     0.23     0  13:40     0.00213      0.0171       0.003
  N358                 JUNCTION      0.03     0.17     0  13:35     0.00213      0.0166      -0.075
  N359                 JUNCTION      0.03     0.11     0  19:19     0.00213      0.0102      -0.020
  N36                  JUNCTION      0.03     5.02     0  14:24     0.00213       0.124       0.243
  N360                 JUNCTION      0.03     0.09     0  19:19     0.00213     0.00807      -0.123
  N361                 JUNCTION      0.03     0.07     0  18:50     0.00213     0.00696       7.620
  N362                 JUNCTION      0.03     0.42     0  13:36     0.00213       0.032       0.001
  N363                 JUNCTION      0.03     0.06     0  13:35     0.00213     0.00427      -0.005
  N364                 JUNCTION      0.03     0.20     0  13:35     0.00213      0.0149       0.003
  N365                 JUNCTION      0.03     0.13     4  21:56     0.00213     0.00455      -5.837
  N366                 JUNCTION      0.03     0.20     0  13:35     0.00213      0.0149       0.003
  N367                 JUNCTION      0.03     0.20     0  13:35     0.00213      0.0149       0.002
  N368                 JUNCTION      0.03     0.17     0  13:35     0.00213      0.0128       0.001
  N369                 JUNCTION      0.03     0.14     0  13:35     0.00213      0.0107       0.001
  N37                  JUNCTION      0.03     0.08     0  13:35     0.00213      0.0064       0.003
  N370                 JUNCTION      0.03     0.14     0  13:35     0.00213      0.0107       0.004
  N371                 JUNCTION      0.03     0.06     0  13:35     0.00213     0.00427       0.011
  N372                 JUNCTION      0.03     0.08     0  13:35     0.00213      0.0064       0.004
  N373                 JUNCTION      0.03     0.11     0  13:35     0.00213     0.00853       0.007
  N374                 JUNCTION      0.03     0.17     0  13:35     0.00213      0.0128       0.003
  N375                 JUNCTION      0.03     0.11     0  13:35     0.00213     0.00853       0.005
  N376                 JUNCTION      0.03     0.06     0  13:35     0.00213     0.00427       0.004
  N377                 JUNCTION      0.03     0.14     0  13:35     0.00213      0.0107       0.004
  N378                 JUNCTION      0.03     0.08     0  13:35     0.00213      0.0064       0.004
  N379                 JUNCTION      0.03     0.06     0  13:35     0.00213     0.00427       0.009
  N38                  JUNCTION      0.03     5.62     0  14:01     0.00213       0.204       0.024
  N380                 JUNCTION      0.03     0.06     0  13:35     0.00213     0.00426       0.009
  N381                 JUNCTION      0.03     0.03     0  13:30     0.00213     0.00213       0.000
  N382                 JUNCTION      0.03     0.03     0  13:30     0.00213     0.00213       0.038
  N383                 JUNCTION      0.03     0.03     0  13:30     0.00213     0.00213       0.016
  N384                 JUNCTION      0.03     0.03     0  13:30     0.00213     0.00213       0.004
  N385                 JUNCTION      0.03     0.03     0  13:30     0.00213     0.00213       0.037
  N386                 JUNCTION      0.03     0.03     0  13:30     0.00213     0.00213       0.019
  N387                 JUNCTION      0.03     0.03     0  13:30     0.00213     0.00213       0.037
  N388                 JUNCTION      0.03     0.03     0  13:30     0.00213     0.00213      -0.002
  N389                 JUNCTION      0.03     0.03     0  13:30     0.00213     0.00213      -0.002
  N39                  JUNCTION      0.03     1.04     0  13:45     0.00213      0.0789      -0.000
  N390                 JUNCTION      0.03     0.03     0  13:30     0.00213     0.00213       0.030
  N391                 JUNCTION      0.03     0.03     0  13:30     0.00213     0.00213       0.009
  N392                 JUNCTION      0.03     0.03     0  13:30     0.00213     0.00213      -0.003
  N393                 JUNCTION      0.03     0.03     0  13:30     0.00213     0.00213       0.014
  N394                 JUNCTION      0.03     0.03     0  13:30     0.00213     0.00213       0.021
  N395                 JUNCTION      0.03     0.03     0  13:30     0.00213     0.00213       0.004
  N396                 JUNCTION      0.03     0.03     0  13:30     0.00213     0.00213       0.003
  N397                 JUNCTION      0.03     0.03     0  13:30     0.00213     0.00213      -0.001
  N398                 JUNCTION      0.03     0.03     0  13:30     0.00213     0.00213       0.038
  N399                 JUNCTION      0.03     0.03     0  13:30     0.00213     0.00213       0.039
  N4                   JUNCTION      0.03     0.14     0  13:35     0.00213      0.0107       0.004
  N40                  JUNCTION      0.03     0.06     0  13:35     0.00213     0.00426       0.007
  N400                 JUNCTION      0.03     0.03     0  13:30     0.00213     0.00213       0.024
  N401                 JUNCTION      0.03     0.03     0  13:30     0.00213     0.00213       0.008
[...]
  W000001987              3.46   0.10  0.00  0.00  0.51  0.38  0.00  0.00  0.90  0.00
  W000001988              1.61   0.10  0.00  0.00  0.51  0.38  0.00  0.00  0.00  0.00
  W000001989              1.06   0.10  0.00  0.00  0.00  0.00  0.00  0.90  0.00  0.00
  W000001990              1.43   0.10  0.00  0.00  0.51  0.39  0.00  0.00  0.00  0.00
  W000001991              3.61   0.10  0.00  0.00  0.57  0.33  0.00  0.00  0.90  0.00
  W000001992              1.00   0.10  0.00  0.00  0.51  0.39  0.00  0.00  0.90  0.00
  W000001993              6.00   0.10  0.00  0.00  0.51  0.38  0.00  0.00  0.90  0.00
  W000001994              1.43   0.10  0.00  0.00  0.00  0.00  0.00  0.90  0.00  0.00
  W000001995              1.00   0.10  0.00  0.00  0.51  0.38  0.00  0.00  0.51  0.00
  W000001996             19.48   0.10  0.00  0.00  0.51  0.38  0.00  0.00  0.90  0.00
  W000001997              1.38   0.10  0.00  0.00  0.00  0.00  0.00  0.90  0.00  0.00
  W000001998              1.56   0.10  0.00  0.00  0.00  0.00  0.00  0.90  0.00  0.00
  W000001999              3.27   0.10  0.51  0.00  0.00  0.38  0.00  0.00  0.90  0.00
  W000002000              1.24   0.10  0.00  0.00  0.51  0.39  0.00  0.00  0.51  0.00
  W000002001              1.00   0.10  0.00  0.00  0.00  0.00  0.00  0.90  0.00  0.00
  W000002002              2.70   0.10  0.00  0.00  0.51  0.39  0.00  0.00  0.89  0.00
  W000002003              3.74   0.10  0.00  0.00  0.51  0.38  0.00  0.00  0.89  0.00
  W000002004              9.51   0.10  0.00  0.00  0.51  0.38  0.00  0.00  0.90  0.00
  W000002005              1.00   0.10  0.00  0.00  0.00  0.00  0.00  0.90  0.00  0.00
  W000002006              2.61   0.10  0.51  0.00  0.38  0.00  0.00  0.00  0.90  0.00
  W000002007              1.40   0.10  0.00  0.00  0.51  0.38  0.00  0.00  0.90  0.00
  W000002008              3.58   0.10  0.00  0.00  0.51  0.38  0.00  0.00  0.90  0.00
  W000002009              4.68   0.10  0.00  0.00  0.51  0.38  0.00  0.00  0.90  0.00
  W000002010              5.44   0.10  0.00  0.00  0.51  0.38  0.00  0.00  0.51  0.00
  W000002011              5.79   0.10  0.00  0.00  0.51  0.38  0.00  0.00  0.90  0.00
  W000002012              1.85   0.10  0.00  0.00  0.00  0.00  0.00  0.90  0.00  0.00
  W000002013              1.78   0.10  0.00  0.00  0.47  0.43  0.00  0.00  0.51  0.00
  W000002014              1.00   0.10  0.00  0.00  0.51  0.39  0.00  0.00  0.51  0.00
  W000002015              1.00   0.10  0.00  0.00  0.51  0.39  0.00  0.00  0.90  0.00
  W000002016              1.00   0.10  0.00  0.00  0.51  0.39  0.00  0.00  0.90  0.00
  W000002017              1.09   0.10  0.00  0.00  0.51  0.39  0.00  0.00  0.90  0.00
  W000002018              1.47   0.10  0.00  0.00  0.51  0.39  0.00  0.00  0.90  0.00
  W000002019              1.21   0.10  0.00  0.00  0.51  0.38  0.00  0.00  0.90  0.00
  W000002020              1.19   0.10  0.00  0.00  0.51  0.38  0.00  0.00  0.90  0.00
  W000002021              1.00   0.10  0.00  0.00  0.90  0.00  0.00  0.00  0.90  0.00
  W000002022              1.45   0.10  0.00  0.00  0.51  0.39  0.00  0.00  0.49  0.00
  W000002023              1.71   0.10  0.00  0.00  0.48  0.42  0.00  0.00  0.46  0.00
  W000002024              2.61   0.10  0.00  0.00  0.50  0.40  0.00  0.00  0.84  0.00
  W000002026              3.11   0.10  0.00  0.00  0.48  0.41  0.00  0.00  0.51  0.00
  W000002027              3.30   0.10  0.10  0.00  0.36  0.44  0.00  0.00  0.38  0.00
  W000002028              1.92   0.12  0.02  0.00  0.00  0.00  0.86  0.00  0.00  0.00
  W000002029              2.24   0.14  0.00  0.00  0.64  0.19  0.00  0.03  0.69  0.00
  W000002030              1.23   0.10  0.51  0.00  0.38  0.00  0.00  0.00  0.90  0.00
  W000002031              1.74   0.10  0.51  0.00  0.01  0.37  0.00  0.00  0.90  0.00
  W000002032              2.56   0.10  0.00  0.00  0.51  0.38  0.00  0.00  0.90  0.00
  W000002033              1.34   0.10  0.00  0.00  0.51  0.39  0.00  0.00  0.90  0.00
  W000002034              3.00   0.10  0.00  0.00  0.51  0.39  0.00  0.00  0.90  0.00
  W000002035              2.14   0.10  0.00  0.00  0.51  0.39  0.00  0.00  0.51  0.00
  W000002036              2.61   0.10  0.00  0.00  0.51  0.39  0.00  0.00  0.89  0.00
  W000002037              1.02   0.10  0.00  0.00  0.51  0.39  0.00  0.00  0.51  0.00
  W000002038              1.22   0.10  0.00  0.00  0.51  0.38  0.00  0.00  0.51  0.00
  W000002039              1.62   0.10  0.00  0.00  0.52  0.38  0.00  0.00  0.90  0.00
  W000002040              2.05   0.10  0.00  0.00  0.51  0.38  0.00  0.00  0.90  0.00
  W000002041              2.21   0.10  0.00  0.00  0.51  0.38  0.00  0.00  0.90  0.00
  W000002042              1.59   0.10  0.51  0.00  0.39  0.00  0.00  0.00  0.90  0.00
  W000002043              1.00   0.10  0.00  0.00  0.00  0.00  0.00  0.90  0.00  0.00
  W000002044              1.42   0.10  0.00  0.00  0.51  0.38  0.00  0.00  0.55  0.00
  W000002045              1.00   0.10  0.00  0.00  0.00  0.00  0.00  0.90  0.00  0.00
  W000002046              1.00   0.10  0.00  0.00  0.86  0.03  0.00  0.00  0.90  0.00
  W000002047              1.00   0.10  0.00  0.00  0.51  0.39  0.00  0.00  0.00  0.00
  W000002048              1.00   0.10  0.00  0.00  0.00  0.00  0.00  0.90  0.00  0.00
  W000002049              1.31   0.10  0.00  0.00  0.51  0.38  0.00  0.00  0.51  0.00
  W000002050              1.00   0.10  0.00  0.00  0.51  0.38  0.00  0.00  0.90  0.00
  W000002051              1.38   0.10  0.00  0.00  0.51  0.38  0.00  0.00  0.90  0.00
  W000002052              1.00   0.10  0.01  0.00  0.89  0.00  0.00  0.00  0.89  0.00
  W000002053              1.00   0.10  0.00  0.00  0.90  0.00  0.00  0.00  0.51  0.00
  W000002054              1.00   0.10  0.00  0.00  0.90  0.00  0.00  0.00  0.89  0.00
  W000002055              1.00   0.10  0.00  0.00  0.86  0.03  0.00  0.00  0.87  0.00
  W000002056              1.00   0.10  0.00  0.00  0.87  0.02  0.00  0.00  0.86  0.00
  W000002057              1.00   0.10  0.00  0.00  0.88  0.02  0.00  0.00  0.87  0.00
  W000002058              1.00   0.10  0.00  0.00  0.51  0.38  0.00  0.00  0.89  0.00
  W000002059              1.00   0.10  0.00  0.00  0.51  0.39  0.00  0.00  0.88  0.00
  W000002060              1.56   0.10  0.00  0.00  0.51  0.39  0.00  0.00  0.88  0.00
  W000002061              1.00   0.10  0.00  0.00  0.51  0.39  0.00  0.00  0.02  0.00
  W000002062              1.11   0.10  0.00  0.00  0.00  0.00  0.00  0.90  0.00  0.00
  W000002063              4.34   0.10  0.00  0.00  0.00  0.00  0.00  0.90  0.00  0.00
  W000002064              1.00   0.10  0.00  0.00  0.57  0.33  0.00  0.00  0.88  0.00
  W000002065              1.00   0.10  0.00  0.00  0.61  0.29  0.00  0.00  0.90  0.00
  W000002066              1.00   0.10  0.00  0.00  0.49  0.40  0.00  0.00  0.01  0.00
  W000002067              3.78   0.10  0.51  0.00  0.38  0.00  0.00  0.00  0.90  0.00
  W000002068              1.00   0.10  0.00  0.00  0.51  0.38  0.00  0.00  0.90  0.00
  W000002069              1.00   0.10  0.00  0.00  0.50  0.40  0.00  0.00  0.50  0.00
  W000002070              3.98   0.10  0.51  0.00  0.39  0.00  0.00  0.00  0.90  0.00
  W000002071              1.00   0.10  0.00  0.00  0.00  0.00  0.00  0.90  0.00  0.00
  W000002072              1.00   0.10  0.00  0.00  0.51  0.38  0.00  0.00  0.90  0.00
  W000002073              1.34   0.10  0.00  0.00  0.90  0.00  0.00  0.00  0.00  0.00
  W000002074              1.00   0.10  0.00  0.00  0.00  0.00  0.00  0.90  0.00  0.00
  W000002075              1.10   0.10  0.00  0.00  0.84  0.05  0.00  0.00  0.50  0.00
  W000002076              1.00   0.10  0.00  0.00  0.00  0.00  0.00  0.90  0.00  0.00
  W000002077              1.14   0.10  0.00  0.00  0.00  0.00  0.00  0.90  0.00  0.00
  W000002078              1.00   0.10  0.00  0.00  0.00  0.00  0.00  0.90  0.00  0.00
  W000002079              1.00   0.10  0.00  0.00  0.51  0.39  0.00  0.00  0.51  0.00
  W000002080              1.00   0.10  0.00  0.00  0.00  0.00  0.00  0.90  0.00  0.00
  W000002081              1.00   0.10  0.00  0.00  0.90  0.00  0.00  0.00  0.90  0.00
  W000002082              1.00   0.10  0.00  0.00  0.00  0.00  0.00  0.90  0.00  0.00
  W000002083              1.00   0.10  0.00  0.00  0.00  0.00  0.00  0.90  0.00  0.00
  W000007607              1.49   0.10  0.00  0.00  0.51  0.39  0.00  0.00  0.90  0.00
  W000008446              1.00   0.00  0.00  0.00  0.96  0.04  0.00  0.00  0.85  0.00
  W000008447              1.00   0.00  0.51  0.00  0.48  0.01  0.00  0.00  0.98  0.00
  W000008448              1.00   0.00  0.00  0.00  0.97  0.03  0.00  0.00  0.88  0.00
  W000008454              1.00   0.00  0.00  0.00  0.98  0.01  0.00  0.00  0.76  0.00
  W000008455              1.00   0.00  0.00  0.00  1.00  0.00  0.00  0.00  0.00  0.00
  W000008456              1.19   0.00  0.10  0.00  0.90  0.00  0.00  0.00  0.87  0.00
  W000008457              1.00   0.00  0.12  0.00  0.83  0.05  0.00  0.00  0.83  0.00
  W000008458              1.00   0.00  0.00  0.00  0.98  0.02  0.00  0.00  0.13  0.00
  W000014057              3.22   0.10  0.00  0.00  0.00  0.00  0.00  0.90  0.00  0.00
  W000014968              1.00   0.00  0.60  0.00  0.40  0.00  0.00  0.00  0.90  0.00
  W000014969              1.23   0.10  0.00  0.00  0.51  0.39  0.00  0.00  0.90  0.00
  W000014970              1.00   0.10  0.00  0.00  0.51  0.39  0.00  0.00  0.00  0.00
  W000014971              1.00   0.10  0.00  0.00  0.89  0.01  0.00  0.00  0.89  0.00
  W000014972              1.00   0.10  0.00  0.00  0.90  0.00  0.00  0.00  0.90  0.00
  W000014973              1.00   0.10  0.00  0.00  0.90  0.00  0.00  0.00  0.90  0.00
  W000015041              1.00   0.10  0.00  0.00  0.90  0.00  0.00  0.00  0.71  0.00
  W000015042              1.95   0.10  0.00  0.00  0.00  0.00  0.00  0.90  0.00  0.00
  W000015043              1.00   0.10  0.00  0.00  0.51  0.38  0.00  0.00  0.51  0.00
  W000015044              1.00   0.10  0.00  0.00  0.51  0.39  0.00  0.00  0.90  0.00
  W000015045              1.52   0.10  0.00  0.00  0.50  0.39  0.00  0.00  0.00  0.00
  W000015046             10.24   0.10  0.00  0.00  0.51  0.39  0.00  0.00  0.50  0.00
  W000015047              2.28   0.10  0.00  0.00  0.00  0.00  0.00  0.90  0.00  0.00
  W000015048              2.18   0.10  0.00  0.00  0.51  0.39  0.00  0.00  0.50  0.00
  W000015049              1.00   0.10  0.00  0.00  0.75  0.14  0.00  0.00  0.90  0.00
  W000015050              1.00   0.10  0.00  0.00  0.54  0.35  0.00  0.00  0.89  0.00
  W000015051              1.00   0.10  0.00  0.00  0.00  0.00  0.00  0.90  0.00  0.00
  W000015052              1.00   0.10  0.00  0.00  0.51  0.38  0.00  0.00  0.90  0.00
  W000015053              1.00   0.10  0.00  0.00  0.51  0.39  0.00  0.00  0.90  0.00
  W000015054              1.00   0.10  0.00  0.00  0.00  0.00  0.00  0.90  0.00  0.00
  W000015055              2.14   0.10  0.00  0.00  0.53  0.36  0.00  0.00  0.90  0.00
  W000015056              1.00   0.10  0.00  0.00  0.00  0.00  0.00  0.90  0.00  0.00
  W000015057              1.00   0.10  0.00  0.00  0.00  0.00  0.00  0.90  0.00  0.00
  W000015058              2.65   0.10  0.00  0.00  0.00  0.00  0.00  0.90  0.00  0.00
  W000015059              1.43   0.10  0.00  0.00  0.00  0.00  0.00  0.90  0.00  0.00
  W000015060              1.00   0.10  0.00  0.00  0.00  0.00  0.00  0.90  0.00  0.00
  W000015061              2.09   0.10  0.00  0.00  0.57  0.33  0.00  0.00  0.90  0.00
  W000015062              1.00   0.10  0.00  0.00  0.00  0.00  0.00  0.90  0.00  0.00
  W000015063              2.23   0.10  0.00  0.00  0.00  0.00  0.00  0.90  0.00  0.00
  W000015064              1.00   0.10  0.00  0.00  0.51  0.39  0.00  0.00  0.51  0.00
  W000015065              1.00   0.10  0.00  0.00  0.90  0.00  0.00  0.00  0.90  0.00
  W000015066              1.00   0.10  0.00  0.00  0.51  0.38  0.00  0.00  0.90  0.00
  W000015067              1.00   0.10  0.00  0.00  0.51  0.39  0.00  0.00  0.00  0.00
  W000015068              1.00   0.10  0.00  0.00  0.00  0.00  0.00  0.90  0.00  0.00
  W000015069              1.73   0.10  0.00  0.00  0.51  0.38  0.00  0.00  0.90  0.00
  W000015070              2.64   0.10  0.00  0.00  0.00  0.00  0.00  0.90  0.00  0.00
  W000015071              1.00   0.10  0.00  0.00  0.00  0.00  0.00  0.90  0.00  0.00
  W000015072              1.00   0.10  0.00  0.00  0.00  0.00  0.00  0.90  0.00  0.00
  W000015073              1.00   0.10  0.00  0.00  0.00  0.00  0.00  0.90  0.00  0.00
  W000015074              1.00   0.10  0.00  0.00  0.00  0.00  0.00  0.90  0.00  0.00
  W000015075              2.12   0.10  0.00  0.00  0.00  0.00  0.00  0.90  0.00  0.00
  W000015076              1.00   0.10  0.00  0.00  0.00  0.00  0.00  0.90  0.00  0.00
  W000015077              1.20   0.10  0.00  0.00  0.00  0.00  0.00  0.90  0.00  0.00
  W000015078              1.00   0.10  0.00  0.00  0.00  0.00  0.00  0.90  0.00  0.00
  W000015079              1.09   0.10  0.00  0.00  0.51  0.38  0.00  0.00  0.90  0.00
  W000015080              1.38   0.10  0.00  0.00  0.00  0.00  0.00  0.90  0.00  0.00
  W000015081              1.70   0.10  0.00  0.00  0.00  0.00  0.00  0.90  0.00  0.00
  W000015082              2.50   0.10  0.00  0.00  0.52  0.38  0.00  0.00  0.90  0.00
  W000015083              1.58   0.10  0.00  0.00  0.89  0.00  0.00  0.00  0.89  0.00
  W000015084              1.23   0.10  0.00  0.00  0.51  0.39  0.00  0.00  0.90  0.00
  W000015085              1.00   0.10  0.00  0.00  0.51  0.39  0.00  0.00  0.00  0.00
  W000015086              1.00   0.10  0.00  0.00  0.52  0.38  0.00  0.00  0.90  0.00
  W000015087              1.48   0.10  0.00  0.00  0.90  0.00  0.00  0.00  0.90  0.00
  W000015088              4.04   0.10  0.00  0.00  0.89  0.00  0.00  0.00  0.90  0.00
  W000015089              2.44   0.10  0.00  0.00  0.51  0.39  0.00  0.00  0.90  0.00
  W000015090              1.00   0.10  0.51  0.00  0.39  0.00  0.00  0.00  0.90  0.00
  W000015091              1.00   0.10  0.00  0.00  0.00  0.00  0.00  0.90  0.00  0.00
  W000015092              1.61   0.10  0.00  0.00  0.00  0.00  0.00  0.90  0.00  0.00
  W000015093              1.00   0.10  0.00  0.00  0.00  0.00  0.00  0.90  0.00  0.00
  W000015094              1.00   0.10  0.00  0.00  0.00  0.00  0.00  0.90  0.00  0.00
  W000015095              1.00   0.10  0.00  0.00  0.90  0.00  0.00  0.00  0.51  0.00
  W000015096              1.35   0.10  0.00  0.00  0.00  0.00  0.00  0.90  0.00  0.00
  W000015097              1.30   0.10  0.00  0.00  0.00  0.00  0.00  0.90  0.00  0.00
  W000015098              3.40   0.10  0.00  0.00  0.00  0.00  0.00  0.90  0.00  0.00
  W000015099              1.00   0.10  0.00  0.00  0.00  0.00  0.00  0.90  0.00  0.00
  W000015100              1.48   0.10  0.00  0.00  0.51  0.38  0.00  0.00  0.90  0.00
  W000015101              1.00   0.10  0.00  0.00  0.90  0.00  0.00  0.00  0.90  0.00
  W000015102              1.84   0.10  0.00  0.00  0.00  0.00  0.00  0.90  0.00  0.00
  W000015103              1.04   0.10  0.00  0.00  0.54  0.36  0.00  0.00  0.90  0.00
  W000015104              1.58   0.10  0.00  0.00  0.90  0.00  0.00  0.00  0.90  0.00
  W000015105              1.33   0.10  0.00  0.00  0.00  0.00  0.00  0.90  0.00  0.00
  W000015106              1.43   0.10  0.00  0.00  0.51  0.39  0.00  0.00  0.90  0.00
  W000015107              1.24   0.10  0.00  0.00  0.51  0.38  0.00  0.00  0.90  0.00
  W000015108              1.53   0.10  0.00  0.00  0.90  0.00  0.00  0.00  0.90  0.00
  W999999999F             1.00   0.11  0.00  0.00  0.00  0.00  0.89  0.00  0.00  0.00
  W999999999H             3.09   0.12  0.00  0.00  0.00  0.00  0.00  0.88  0.00  0.00
  W999999999I             5.85   0.10  0.01  0.00  0.89  0.00  0.00  0.00  0.89  0.00
  
  
  *************************
  Conduit Surcharge Summary
  *************************
  
  ----------------------------------------------------------------------------
                                                           Hours        Hours 
                         --------- Hours Full --------   Above Full   Capacity
  Conduit                Both Ends  Upstream  Dnstream   Normal Flow   Limited
  ----------------------------------------------------------------------------
  CDT-25                      0.01      1.22      0.01      1.25         0.01
  W000001762                  0.01      0.01      0.19      0.01         0.01
  W000001771                  0.18      0.19      1.90      0.52         0.01
  W000001810                  0.01      0.01      0.19      0.01         0.01
  W000001846                  0.01      0.01      0.02      0.01         0.01
  W000001869                  0.21      0.27      0.98      0.54         0.09
  W000001895                  0.01      2.08      0.01      5.00         0.01
  W000001926                  0.01      0.01    106.32      0.01         0.01
  W000002053                  0.01      0.01      0.01      0.01         0.01
  W000008446                  0.01      0.01    106.50      0.01         0.01
  W000008447                  1.22      1.22    119.92      0.01         0.01
  W000008448                  0.01      0.01    118.79      2.32         0.01
  W000008454                  1.75      5.69     91.31      2.11         0.01
  W000008455                119.92    119.92    119.92      0.01         0.01
  W000008456                  0.01      0.01    106.40      0.01         0.01
  W000008457                  0.01      0.01    106.57      0.01         0.01
  W000008458                  0.01      0.01    118.60      2.43         0.01
  W000014968                  0.01      0.01      2.01      0.01         0.01
  W999999999F                 0.01      0.01    106.69      0.01         0.01
  
  
  ***************
  Pumping Summary
  ***************
  
  ---------------------------------------------------------------------------------------------------------
                                                  Min       Avg       Max     Total     Power    % Time Off
                        Percent   Number of      Flow      Flow      Flow    Volume     Usage    Pump Curve
  Pump                 Utilized   Start-Ups       LPS       LPS       LPS  10^6 ltr     Kw-hr    Low   High
  ---------------------------------------------------------------------------------------------------------
  SPS1001                  4.19         116      0.00     12.45     14.09     0.225     18.01    0.0    0.0
  SPS1001_B                0.00           0      0.00      0.00      0.00     0.000      0.00    0.0    0.0
  SPS1002                  1.82          49      0.00     15.24     18.43     0.119      3.60    0.0    0.0
  SPS1002_B                0.00           0      0.00      0.00      0.00     0.000      0.00    0.0    0.0
  SPS1003                  2.86         169      0.00     61.51    110.50     0.759     58.46    0.0    0.1
  SPS1003_B                0.00           0      0.00      0.00      0.00     0.000      0.00    0.0    0.0
  SPS1004                  1.76          11      0.00      4.00      5.20     0.030      1.39    0.0    0.1
  SPS1004_B                0.00           0      0.00      0.00      0.00     0.000      0.00    0.0    0.0
  SPS1005                  2.58          60      0.00      7.15      8.62     0.080      3.51    0.0    0.0
  SPS1005_B                0.00           0      0.00      0.00      0.00     0.000      0.00    0.0    0.0
  SPS1006                  5.36          92      0.00      7.08      7.52     0.164      6.37    0.0    0.0
  SPS1006_B                0.00           0      0.00      0.00      0.00     0.000      0.00    0.0    0.0
  SPS1007                  1.71          47      0.00     27.09     31.40     0.200     13.73    0.0    0.0
  SPS1007_B                0.00           0      0.00      0.00      0.00     0.000      0.00    0.0    0.0
  

  Analysis begun on:  Tue Jun 23 21:22:57 2026
  Analysis ended on:  Tue Jun 23 21:23:08 2026
  Total elapsed time: 00:00:11