
  EPA STORM WATER MANAGEMENT MODEL - VERSION 5.2 (Build 5.2.4)
  ------------------------------------------------------------

  
  ERROR 235: invalid infiltration parameters at line 97 of [INFIL] section:
  SB1              83         0.5        7         

  
  ERROR 235: invalid infiltration parameters at line 98 of [INFIL] section:
  SB2              83         0.5        7         

  
  ERROR 235: invalid infiltration parameters at line 112 of [INFIL] section:
  SB16             83         0.5        7         


  Analysis begun on:  Tue Jun 23 21:23:08 2026
  Analysis ended on:  Tue Jun 23 21:23:08 2026
  Total elapsed time: < 1 sec