
  EPA STORM WATER MANAGEMENT MODEL - VERSION 5.2 (Build 5.2.4)
  ------------------------------------------------------------

  
  ERROR 235: invalid infiltration parameters at line 165 of [INFIL] section:
  HWY41_FM9_279438 3.0        0.5        4         

  
  ERROR 235: invalid infiltration parameters at line 166 of [INFIL] section:
  HWY41_FM12_125595 3.0        0.5        4         

  
  ERROR 235: invalid infiltration parameters at line 167 of [INFIL] section:
  HWY41_FM27_84643 3.0        0.5        4         

  
  ERROR 235: invalid infiltration parameters at line 168 of [INFIL] section:
  HWY41_FM9_13700  3.0        0.5        4         

  
  ERROR 235: invalid infiltration parameters at line 169 of [INFIL] section:
  HWY41_FM27_13686 3.0        0.5        4         

  
  ERROR 235: invalid infiltration parameters at line 170 of [INFIL] section:
  HWY41_FM27_13684 3.0        0.5        4         

  
  ERROR 235: invalid infiltration parameters at line 171 of [INFIL] section:
  HWY41_FM9_13492  3.0        0.5        4         

  
  ERROR 235: invalid infiltration parameters at line 172 of [INFIL] section:
  HWY41_FM27_13389 3.0        0.5        4         

  
  ERROR 235: invalid infiltration parameters at line 173 of [INFIL] section:
  HWY41_FM27_10955 3.0        0.5        4         

  
  ERROR 235: invalid infiltration parameters at line 174 of [INFIL] section:
  HWY41_FM12_10953 3.0        0.5        4         

  
  ERROR 235: invalid infiltration parameters at line 175 of [INFIL] section:
  HWY41_FM27_10883b 3.0        0.5        4         

  
  ERROR 235: invalid infiltration parameters at line 176 of [INFIL] section:
  HWY41_FM27_10883a 3.0        0.5        4         

  
  ERROR 235: invalid infiltration parameters at line 177 of [INFIL] section:
  HWY41_FM27_10878 3.0        0.5        4         

  
  ERROR 235: invalid infiltration parameters at line 178 of [INFIL] section:
  HWY41_FM27_10874 3.0        0.5        4         

  
  ERROR 235: invalid infiltration parameters at line 179 of [INFIL] section:
  HWY41_FM27_10870 3.0        0.5        4         

  
  ERROR 235: invalid infiltration parameters at line 180 of [INFIL] section:
  HWY41_FM27_10852 3.0        0.5        4         

  
  ERROR 235: invalid infiltration parameters at line 181 of [INFIL] section:
  HWY41_FM27_10844 3.0        0.5        4         

  
  ERROR 235: invalid infiltration parameters at line 182 of [INFIL] section:
  HWY41_FM27_10826 3.0        0.5        4         

  
  ERROR 235: invalid infiltration parameters at line 183 of [INFIL] section:
  HWY41_FM27_10752 3.0        0.5        4         

  
  ERROR 235: invalid infiltration parameters at line 184 of [INFIL] section:
  HWY41_FM9_10730  3.0        0.5        4         

  
  ERROR 235: invalid infiltration parameters at line 185 of [INFIL] section:
  HWY41_FM12_9809  3.0        0.5        4         

  
  ERROR 235: invalid infiltration parameters at line 186 of [INFIL] section:
  HWY41_FM27_88734 3.0        0.5        4         

  
  ERROR 235: invalid infiltration parameters at line 187 of [INFIL] section:
  HWY41_FM27_13374 3.0        0.5        4         

  
  ERROR 235: invalid infiltration parameters at line 188 of [INFIL] section:
  HWY41_FM27_13254 3.0        0.5        4         

  
  ERROR 235: invalid infiltration parameters at line 189 of [INFIL] section:
  HWY41_FM27_10604 3.0        0.5        4         

  
  ERROR 235: invalid infiltration parameters at line 190 of [INFIL] section:
  HWY41_FM12_11105 3.0        0.5        4         

  
  ERROR 235: invalid infiltration parameters at line 191 of [INFIL] section:
  HWY41_FM9_10925  3.0        0.5        4         

  
  ERROR 235: invalid infiltration parameters at line 192 of [INFIL] section:
  HWY41_UM_9722    3.0        0.5        4         

  
  ERROR 235: invalid infiltration parameters at line 193 of [INFIL] section:
  HWY41_UM_9702    3.0        0.5        4         

  
  ERROR 235: invalid infiltration parameters at line 194 of [INFIL] section:
  HWY41_UM_9697    3.0        0.5        4         

  
  ERROR 235: invalid infiltration parameters at line 195 of [INFIL] section:
  MB_FM27_84326    3.0        0.5        4         

  
  ERROR 235: invalid infiltration parameters at line 196 of [INFIL] section:
  MB_FM27_16336    3.0        0.5        4         

  
  ERROR 235: invalid infiltration parameters at line 197 of [INFIL] section:
  MB_FM27_16321    3.0        0.5        4         

  
  ERROR 235: invalid infiltration parameters at line 198 of [INFIL] section:
  MB_FM27_16204    3.0        0.5        4         

  
  ERROR 235: invalid infiltration parameters at line 199 of [INFIL] section:
  MB_FM27_16196    3.0        0.5        4         

  
  ERROR 235: invalid infiltration parameters at line 200 of [INFIL] section:
  MB_FM27_15563    3.0        0.5        4         

  
  ERROR 235: invalid infiltration parameters at line 201 of [INFIL] section:
  MB_FM27_15398    3.0        0.5        4         

  
  ERROR 235: invalid infiltration parameters at line 202 of [INFIL] section:
  MB_FM27_15266    3.0        0.5        4         

  
  ERROR 235: invalid infiltration parameters at line 203 of [INFIL] section:
  MB_FM27_13221    3.0        0.5        4         

  
  ERROR 235: invalid infiltration parameters at line 204 of [INFIL] section:
  MB_FM27_13218    3.0        0.5        4         

  
  ERROR 235: invalid infiltration parameters at line 205 of [INFIL] section:
  MB_FM27_13228    3.0        0.5        4         

  
  ERROR 235: invalid infiltration parameters at line 206 of [INFIL] section:
  MB_FM27_12890    3.0        0.5        4         

  
  ERROR 235: invalid infiltration parameters at line 207 of [INFIL] section:
  MB_FM27_12847    3.0        0.5        4         

  
  ERROR 235: invalid infiltration parameters at line 208 of [INFIL] section:
  MB_FM27_12773    3.0        0.5        4         

  
  ERROR 235: invalid infiltration parameters at line 209 of [INFIL] section:
  MB_FM27_15574    3.0        0.5        4         

  
  ERROR 235: invalid infiltration parameters at line 210 of [INFIL] section:
  MB_FM27_15197    3.0        0.5        4         

  
  ERROR 235: invalid infiltration parameters at line 211 of [INFIL] section:
  MB_FM27_16189    3.0        0.5        4         

  
  ERROR 235: invalid infiltration parameters at line 212 of [INFIL] section:
  MB_FM27_279461   3.0        0.5        4         


  Analysis begun on:  Tue Jun 23 21:23:08 2026
  Analysis ended on:  Tue Jun 23 21:23:08 2026
  Total elapsed time: < 1 sec