
  EPA STORM WATER MANAGEMENT MODEL - VERSION 5.2 (Build 5.2.4)
  ------------------------------------------------------------

  HEC-22 example 4-9a in US 
  units where flow capture 
  is 1.08 cfs for conventional 
  
  *************
  Element Count
  *************
  Number of rain gages ...... 0
  Number of subcatchments ... 0
  Number of nodes ........... 14
  Number of links ........... 10
  Number of pollutants ...... 0
  Number of land uses ....... 0
  
  
  ************
  Node Summary
  ************
                                           Invert      Max.    Ponded    External
  Name                 Type                 Elev.     Depth      Area    Inflow  
  -------------------------------------------------------------------------------
  1                    JUNCTION             10.00      0.50       0.0    Yes
  2                    JUNCTION              6.00      0.50       0.0
  3                    JUNCTION              2.00      0.50       0.0
  4                    JUNCTION              2.00      2.00       0.0
  5                    JUNCTION              1.00      2.00       0.0
  8                    JUNCTION            100.00      0.58       0.0    Yes
  9                    JUNCTION             96.00      0.58       0.0
  10                   JUNCTION             92.00      0.58       0.0
  12                   JUNCTION              2.00      2.00       0.0
  13                   JUNCTION              1.00      2.00       0.0
  6                    OUTFALL               0.00      2.00       0.0
  7                    OUTFALL              -2.00      0.50       0.0
  11                   OUTFALL              88.00      0.58       0.0
  14                   OUTFALL               0.00      2.00       0.0
  
  
  ************
  Link Summary
  ************
  Name             From Node        To Node          Type            Length    %Slope Roughness
  ---------------------------------------------------------------------------------------------
  1                1                2                CONDUIT          400.0    1.0001    0.0160
  2                2                3                CONDUIT          400.0    1.0001    0.0160
  4                4                5                CONDUIT          400.0    0.2500    0.0100
  5                5                6                CONDUIT          400.0    0.2500    0.0100
  6                3                7                CONDUIT          400.0    1.0001    0.0160
  7                8                9                CONDUIT          400.0    1.0001    0.0160
  8                9                10               CONDUIT          400.0    1.0001    0.0160
  9                10               11               CONDUIT          400.0    1.0001    0.0160
  10               12               13               CONDUIT          400.0    0.2500    0.0100
  11               13               14               CONDUIT          400.0    0.2500    0.0100
  
  
  *********************
  Cross Section Summary
  *********************
                                        Full     Full     Hyd.     Max.   No. of     Full
  Conduit          Shape               Depth     Area     Rad.    Width  Barrels     Flow
  ---------------------------------------------------------------------------------------
  1                Street1              0.50     6.00     0.29    20.00        1    24.50
  2                Street1              0.50     6.00     0.29    20.00        1    24.50
  4                CIRCULAR             2.00     3.14     0.50     2.00        1    14.70
  5                CIRCULAR             2.00     3.14     0.50     2.00        1    14.70
  6                Street1              0.50     6.00     0.29    20.00        1    24.50
  7                Street2              0.58     6.08     0.29    20.00        1    25.00
  8                Street2              0.58     6.08     0.29    20.00        1    25.00
  9                Street2              0.58     6.08     0.29    20.00        1    25.00
  10               CIRCULAR             2.00     3.14     0.50     2.00        1    14.70
  11               CIRCULAR             2.00     3.14     0.50     2.00        1    14.70
  
  
  **************
  Street Summary
  **************

  Street Street1
  Area:  
              0.0004     0.0017     0.0037     0.0067     0.0104 
              0.0150     0.0204     0.0267     0.0337     0.0417 
              0.0504     0.0600     0.0704     0.0817     0.0937 
              0.1067     0.1204     0.1350     0.1504     0.1667 
              0.1837     0.2017     0.2204     0.2400     0.2604 
              0.2817     0.3037     0.3267     0.3504     0.3750 
              0.4004     0.4267     0.4537     0.4817     0.5104 
              0.5400     0.5704     0.6017     0.6338     0.6667 
              0.7000     0.7333     0.7667     0.8000     0.8333 
              0.8667     0.9000     0.9333     0.9667     1.0000 
  Hrad:  
              0.0167     0.0335     0.0502     0.0670     0.0837 
              0.1005     0.1172     0.1340     0.1507     0.1675 
              0.1842     0.2010     0.2177     0.2345     0.2512 
              0.2680     0.2847     0.3015     0.3182     0.3350 
              0.3517     0.3685     0.3852     0.4020     0.4187 
              0.4355     0.4522     0.4690     0.4857     0.5025 
              0.5192     0.5359     0.5527     0.5694     0.5862 
              0.6029     0.6197     0.6364     0.6532     0.6699 
              0.7031     0.7362     0.7693     0.8023     0.8354 
              0.8684     0.9013     0.9342     0.9671     1.0000 
  Width: 
              0.0250     0.0500     0.0750     0.1000     0.1250 
              0.1500     0.1750     0.2000     0.2250     0.2500 
              0.2750     0.3000     0.3250     0.3500     0.3750 
              0.4000     0.4250     0.4500     0.4750     0.5000 
              0.5250     0.5500     0.5750     0.6000     0.6250 
              0.6500     0.6750     0.7000     0.7250     0.7500 
              0.7750     0.8000     0.8250     0.8500     0.8750 
              0.9000     0.9250     0.9500     0.9750     1.0000 
              1.0000     1.0000     1.0000     1.0000     1.0000 
              1.0000     1.0000     1.0000     1.0000     1.0000 

  Street Street2
  Area:  
              0.0002     0.0007     0.0016     0.0029     0.0045 
              0.0065     0.0089     0.0116     0.0147     0.0181 
              0.0220     0.0269     0.0329     0.0400     0.0482 
              0.0576     0.0681     0.0797     0.0924     0.1062 
              0.1211     0.1372     0.1544     0.1727     0.1921 
              0.2126     0.2343     0.2571     0.2810     0.3060 
              0.3321     0.3593     0.3877     0.4172     0.4478 
              0.4795     0.5124     0.5463     0.5814     0.6176 
              0.6549     0.6932     0.7315     0.7699     0.8082 
              0.8466     0.8849     0.9233     0.9616     1.0000 
  Hrad:  
              0.0186     0.0371     0.0557     0.0743     0.0928 
              0.1114     0.1299     0.1485     0.1671     0.1856 
              0.1903     0.1860     0.1895     0.1976     0.2085 
              0.2213     0.2354     0.2504     0.2662     0.2825 
              0.2993     0.3164     0.3337     0.3513     0.3691 
              0.3871     0.4052     0.4234     0.4418     0.4602 
              0.4787     0.4972     0.5159     0.5345     0.5533 
              0.5720     0.5908     0.6097     0.6286     0.6475 
              0.6664     0.6963     0.7344     0.7725     0.8105 
              0.8485     0.8864     0.9243     0.9622     1.0000 
  Width: 
              0.0095     0.0189     0.0284     0.0378     0.0473 
              0.0568     0.0662     0.0757     0.0852     0.0946 
              0.1126     0.1417     0.1709     0.2001     0.2292 
              0.2584     0.2876     0.3167     0.3459     0.3751 
              0.4042     0.4334     0.4625     0.4917     0.5209 
              0.5500     0.5792     0.6084     0.6375     0.6667 
              0.6959     0.7250     0.7542     0.7834     0.8125 
              0.8417     0.8709     0.9000     0.9292     0.9584 
              0.9875     1.0000     1.0000     1.0000     1.0000 
              1.0000     1.0000     1.0000     1.0000     1.0000 
  
  
  ****************
  Analysis Options
  ****************
  Flow Units ............... CFS
  Process Models:
    Rainfall/Runoff ........ NO
    RDII ................... NO
    Snowmelt ............... NO
    Groundwater ............ NO
    Flow Routing ........... YES
    Ponding Allowed ........ NO
    Water Quality .......... NO
  Flow Routing Method ...... DYNWAVE
  Surcharge Method ......... EXTRAN
  Starting Date ............ 07/27/2020 00:00:00
  Ending Date .............. 07/27/2020 06:00:00
  Antecedent Dry Days ...... 0.0
  Report Time Step ......... 00:15:00
  Routing Time Step ........ 30.00 sec
  Variable Time Step ....... YES
  Maximum Trials ........... 8
  Number of Threads ........ 1
  Head Tolerance ........... 0.005000 ft
  
  
  **************************        Volume        Volume
  Flow Routing Continuity        acre-feet      10^6 gal
  **************************     ---------     ---------
  Dry Weather Inflow .......         0.000         0.000
  Wet Weather Inflow .......         0.000         0.000
  Groundwater Inflow .......         0.000         0.000
  RDII Inflow ..............         0.000         0.000
  External Inflow ..........         1.755         0.572
  External Outflow .........         1.715         0.559
  Flooding Loss ............         0.000         0.000
  Evaporation Loss .........         0.000         0.000
  Exfiltration Loss ........         0.000         0.000
  Initial Stored Volume ....         0.041         0.013
  Final Stored Volume ......         0.085         0.028
  Continuity Error (%) .....        -0.232
  
  
  *************************
  Highest Continuity Errors
  *************************
  Node 9 (1.25%)
  Node 2 (1.12%)
  
  
  ***************************
  Time-Step Critical Elements
  ***************************
  None
  
  
  ********************************
  Highest Flow Instability Indexes
  ********************************
  All links are stable.
  
  
  *********************************
  Most Frequent Nonconverging Nodes
  *********************************
  Convergence obtained at all time steps.
  
  
  *************************
  Routing Time Step Summary
  *************************
  Minimum Time Step           :     5.72 sec
  Average Time Step           :    29.88 sec
  Maximum Time Step           :    30.00 sec
  % of Time in Steady State   :     0.00
  Average Iterations per Step :     2.02
  % of Steps Not Converging   :     0.00
  Time Step Frequencies       :
     30.000 - 13.228 sec      :    99.72 %
     13.228 -  5.833 sec      :     0.14 %
      5.833 -  2.572 sec      :     0.14 %
      2.572 -  1.134 sec      :     0.00 %
      1.134 -  0.500 sec      :     0.00 %
  
  
  ******************
  Node Depth Summary
  ******************
  
  ---------------------------------------------------------------------------------
                                 Average  Maximum  Maximum  Time of Max    Reported
                                   Depth    Depth      HGL   Occurrence   Max Depth
  Node                 Type         Feet     Feet     Feet  days hr:min        Feet
  ---------------------------------------------------------------------------------
  1                    JUNCTION     0.19     0.19    10.19     0  00:00        0.19
  2                    JUNCTION     0.21     0.21     6.21     0  00:00        0.21
  3                    JUNCTION     0.13     0.13     2.13     0  00:07        0.13
  4                    JUNCTION     0.50     0.51     2.51     0  00:03        0.50
  5                    JUNCTION     1.50     1.51     2.51     0  00:03        1.50
  8                    JUNCTION     0.26     0.26   100.26     0  00:03        0.26
  9                    JUNCTION     0.30     0.30    96.30     0  00:04        0.30
  10                   JUNCTION     0.14     0.14    92.14     0  00:22        0.14
  12                   JUNCTION     0.00     0.00     2.00     0  00:00        0.00
  13                   JUNCTION     0.44     0.44     1.44     0  00:10        0.44
  6                    OUTFALL      2.50     2.50     2.50     0  00:00        2.50
  7                    OUTFALL      0.13     0.13    -1.87     0  00:07        0.13
  11                   OUTFALL      0.14     0.14    88.14     0  00:22        0.14
  14                   OUTFALL      0.43     0.43     0.43     0  00:10        0.43
  
  
  *******************
  Node Inflow Summary
  *******************
  
  -------------------------------------------------------------------------------------------------
                                  Maximum  Maximum                  Lateral       Total        Flow
                                  Lateral    Total  Time of Max      Inflow      Inflow     Balance
                                   Inflow   Inflow   Occurrence      Volume      Volume       Error
  Node                 Type           CFS      CFS  days hr:min    10^6 gal    10^6 gal     Percent
  -------------------------------------------------------------------------------------------------
  1                    JUNCTION      1.77     1.77     0  00:00       0.238       0.286       0.408
  2                    JUNCTION      0.00     1.77     0  00:00           0       0.285       1.128
  3                    JUNCTION     -1.09     1.77     0  00:00      -0.146       0.282       0.613
  4                    JUNCTION      0.00     0.01     0  00:01           0    0.000367       3.372
  5                    JUNCTION      1.09     1.09     0  00:06       0.146       0.173       0.011
  8                    JUNCTION      1.77     1.77     0  00:00       0.238       0.286       0.375
  9                    JUNCTION      0.00     1.77     0  00:04           0       0.285       1.266
  10                   JUNCTION     -1.54     1.77     0  00:08      -0.208       0.281       0.334
  12                   JUNCTION      0.00     0.00     0  00:00           0           0       0.000 gal
  13                   JUNCTION      1.54     1.54     0  00:09       0.208       0.245       0.557
  6                    OUTFALL       0.00     1.10     0  00:05           0       0.173       0.000
  7                    OUTFALL       0.00     0.68     0  00:07           0       0.107       0.000
  11                   OUTFALL       0.00     0.23     0  00:22           0       0.035       0.000
  14                   OUTFALL       0.00     1.54     0  00:10           0       0.244       0.000
  
  
  **********************
  Node Surcharge Summary
  **********************
  
  No nodes were surcharged.
  
  
  *********************
  Node Flooding Summary
  *********************
  
  No nodes were flooded.
  
  
  ***********************
  Outfall Loading Summary
  ***********************
  
  -----------------------------------------------------------
                         Flow       Avg       Max       Total
                         Freq      Flow      Flow      Volume
  Outfall Node           Pcnt       CFS       CFS    10^6 gal
  -----------------------------------------------------------
  6                    100.00      1.09      1.10       0.173
  7                    100.00      0.68      0.68       0.107
  11                   100.00      0.23      0.23       0.035
  14                   100.00      1.54      1.54       0.244
  -----------------------------------------------------------
  System               100.00      3.54      3.55       0.559
  
  
  *******************
  Street Flow Summary
  *******************
  
  ---------------------------------------------------------------------------------------------------------------------------------------
                                                                                        Peak     Avg.   Bypass     Back     Peak     Peak
                        Peak   Maximum   Maximum                                        Flow     Flow     Flow     Flow  Capture   Bypass
                        Flow    Spread     Depth  Inlet             Inlet     Inlet  Capture  Capture     Freq     Freq  / Inlet     Flow
  Street Conduit         CFS        ft        ft  Design            Location  Count     Pcnt     Pcnt     Pcnt     Pcnt      CFS      CFS
  ---------------------------------------------------------------------------------------------------------------------------------------
  1                    1.770     9.945     0.199
  2                    1.770     8.501     0.170  CurbOpening       ON-GRADE      1    61.43    61.43   100.00     0.00     1.09     0.68
  6                    0.683     6.718     0.134
  7                    1.770     9.845     0.280
  8                    1.770     6.779     0.219  CurbOpening       ON-GRADE      1    87.27    87.27   100.00     0.00     1.54     0.23
  9                    0.225     2.876     0.141
  
  
  ********************
  Link Flow Summary
  ********************
  
  -----------------------------------------------------------------------------
                                 Maximum  Time of Max   Maximum    Max/    Max/
                                  |Flow|   Occurrence   |Veloc|    Full    Full
  Link                 Type          CFS  days hr:min    ft/sec    Flow   Depth
  -----------------------------------------------------------------------------
  1                    CONDUIT      1.77     0  00:00      1.79    0.07    0.40
  2                    CONDUIT      1.77     0  00:00      2.45    0.07    0.34
  4                    CONDUIT      0.01     0  00:01      0.01    0.00    0.50
  5                    CONDUIT      1.10     0  00:05      0.38    0.07    0.88
  6                    CONDUIT      0.68     0  00:07      1.51    0.03    0.27
  7                    CONDUIT      1.77     0  00:04      1.68    0.07    0.48
  8                    CONDUIT      1.77     0  00:08      3.26    0.07    0.38
  9                    CONDUIT      0.23     0  00:22      1.36    0.01    0.24
  10                   CONDUIT      0.00     0  00:00      0.00    0.00    0.11
  11                   CONDUIT      1.54     0  00:10      3.08    0.11    0.22
  
  
  ***************************
  Flow Classification Summary
  ***************************
  
  -------------------------------------------------------------------------------------
                      Adjusted    ---------- Fraction of Time in Flow Class ---------- 
                       /Actual         Up    Down  Sub   Sup   Up    Down  Norm  Inlet 
  Conduit               Length    Dry  Dry   Dry   Crit  Crit  Crit  Crit  Ltd   Ctrl  
  -------------------------------------------------------------------------------------
  1                       1.00   0.00  0.00  0.00  1.00  0.00  0.00  0.00  1.00  0.00
  2                       1.00   0.00  0.00  0.00  0.00  1.00  0.00  0.00  0.00  0.00
  4                       1.00   0.00  0.00  0.00  1.00  0.00  0.00  0.00  0.00  0.00
  5                       1.00   0.00  0.00  0.00  1.00  0.00  0.00  0.00  0.00  0.00
  6                       1.00   0.00  0.00  0.00  0.00  1.00  0.00  0.00  0.00  0.00
  7                       1.00   0.00  0.00  0.00  1.00  0.00  0.00  0.00  1.00  0.00
  8                       1.00   0.00  0.00  0.00  0.00  1.00  0.00  0.00  0.00  0.00
  9                       1.00   0.00  0.00  0.00  1.00  0.00  0.00  0.00  0.00  0.00
  10                      1.00   0.00  1.00  0.00  0.00  0.00  0.00  0.00  0.00  0.00
  11                      1.00   0.00  0.00  0.00  1.00  0.00  0.00  0.00  0.00  0.00
  
  
  *************************
  Conduit Surcharge Summary
  *************************
  
  ----------------------------------------------------------------------------
                                                           Hours        Hours 
                         --------- Hours Full --------   Above Full   Capacity
  Conduit                Both Ends  Upstream  Dnstream   Normal Flow   Limited
  ----------------------------------------------------------------------------
  5                           0.01      0.01      5.00      0.01         0.01
  

  Analysis begun on:  Tue Jun 23 20:57:55 2026
  Analysis ended on:  Tue Jun 23 20:57:55 2026
  Total elapsed time: < 1 sec