
  EPA STORM WATER MANAGEMENT MODEL - VERSION 5.2 (Build 5.2.4)
  ------------------------------------------------------------

  
  ERROR 305: cannot open report file.at line 85 of [LID_USAGE] section:
  wBC              BC               100     50         10         0          25         0          "C:\Xing_Test_Programs\LID\drain_out.txt" woBC             25              


  Analysis begun on:  Tue Jun 23 20:57:59 2026
  Analysis ended on:  Tue Jun 23 20:57:59 2026
  Total elapsed time: < 1 sec