
  EPA STORM WATER MANAGEMENT MODEL - VERSION 5.2 (Build 5.2.4)
  ------------------------------------------------------------

  
  ERROR 191: simulation start date comes after ending date.

  Analysis begun on:  Tue Jun 23 20:57:59 2026
  Analysis ended on:  Tue Jun 23 20:57:59 2026
  Total elapsed time: < 1 sec