
  EPA STORM WATER MANAGEMENT MODEL - VERSION 5.2 (Build 5.2.4)
  ------------------------------------------------------------

  
  ERROR 211: invalid number 28 at line 78 of [LID_CONTROL] section:
  PP               PAVEMENT   6          0.15       0.75       100        500        0          28        


  Analysis begun on:  Tue Jun 23 20:58:01 2026
  Analysis ended on:  Tue Jun 23 20:58:01 2026
  Total elapsed time: < 1 sec