
  EPA STORM WATER MANAGEMENT MODEL - VERSION 5.2 (Build 5.2.4)
  ------------------------------------------------------------

  
  ERROR 205: invalid keyword 250 at line 124 of [BUILDUP] section:
  Urban            TSS              POW        50         1          250        AREA      


  Analysis begun on:  Tue Jun 23 20:58:01 2026
  Analysis ended on:  Tue Jun 23 20:58:01 2026
  Total elapsed time: < 1 sec