
  EPA STORM WATER MANAGEMENT MODEL - VERSION 5.2 (Build 5.2.4)
  ------------------------------------------------------------

  
  ERROR 211: invalid number 6.35 at line 77 of [LID_CONTROL] section:
  BC               SURFACE    152        6.35       2.5        1.0        5         


  Analysis begun on:  Tue Jun 23 20:58:00 2026
  Analysis ended on:  Tue Jun 23 20:58:00 2026
  Total elapsed time: < 1 sec