
  EPA STORM WATER MANAGEMENT MODEL - VERSION 5.2 (Build 5.2.4)
  ------------------------------------------------------------

  
  ERROR 205: invalid keyword 250 at line 116 of [BUILDUP] section:
  Residential      TSS              POW        50         1          250        AREA      

  
  ERROR 205: invalid keyword 100 at line 118 of [BUILDUP] section:
  Residential      BOD              POW        20         1          100        AREA      


  Analysis begun on:  Tue Jun 23 20:58:01 2026
  Analysis ended on:  Tue Jun 23 20:58:01 2026
  Total elapsed time: < 1 sec