
  EPA STORM WATER MANAGEMENT MODEL - VERSION 5.2 (Build 5.2.4)
  ------------------------------------------------------------

  
  ERROR 235: invalid infiltration parameters at line 81 of [INFIL] section:
  BIOCELL          3.0        0.5        4         


  Analysis begun on:  Tue Jun 23 20:58:01 2026
  Analysis ended on:  Tue Jun 23 20:58:01 2026
  Total elapsed time: < 1 sec