
  EPA STORM WATER MANAGEMENT MODEL - VERSION 5.2 (Build 5.2.4)
  ------------------------------------------------------------

  
  ERROR 305: cannot open report file.at line 90 of [LID_USAGE] section:
  Scen1_wBioCell   BC               10      21780.00   10         0          25         1          "C:\Users\dickinre\Desktop\lid_output.txt" *                0               


  Analysis begun on:  Tue Jun 23 20:58:02 2026
  Analysis ended on:  Tue Jun 23 20:58:02 2026
  Total elapsed time: < 1 sec