
  EPA STORM WATER MANAGEMENT MODEL - VERSION 5.2 (Build 5.2.4)
  ------------------------------------------------------------

  
  ERROR 209: undefined object SC1u.1 at line 1388 of [OUTLET] section:
  SC1u.1           SC1u             SC1d             1.333000   TABULAR/DEPTH    SC1u.1                      NO  

  
  ERROR 209: undefined object SC2u.1 at line 1389 of [OUTLET] section:
  SC2u.1           SC2u             SC2d             1.333000   TABULAR/DEPTH    SC2u.1                      NO  

  
  ERROR 209: undefined object SC3u.1 at line 1390 of [OUTLET] section:
  SC3u.1           SC3u             SC3d             1.333000   TABULAR/DEPTH    SC3u.1                      NO  

  
  ERROR 209: undefined object SC4u.1 at line 1391 of [OUTLET] section:
  SC4u.1           SC4u             SC4d             1.333000   TABULAR/DEPTH    SC4u.1                      NO  

  
  ERROR 209: undefined object SC5u.1 at line 1392 of [OUTLET] section:
  SC5u.1           SC5u             SC5d             1.333000   TABULAR/DEPTH    SC5u.1                      NO  

  
  ERROR 209: undefined object SC6u.1 at line 1393 of [OUTLET] section:
  SC6u.1           SC6u             SC6d             1.333000   TABULAR/DEPTH    SC6u.1                      NO  

  
  ERROR 211: invalid number  at line 1809 of [XSECT] section:
  DPu.7            RECT_CLOSED  0.000000         7.500000   0          0

  
  ERROR 211: invalid number  at line 1813 of [XSECT] section:
  FlocESu.2        RECT_CLOSED  0.000000         5.000000   0          0

  
  ERROR 211: invalid number  at line 1817 of [XSECT] section:
  FlocWSu.2        RECT_CLOSED  0.000000         5.000000   0          0

  
  ERROR 211: invalid number  at line 1911 of [XSECT] section:
  A1_4.1           RECT_OPEN    0.000000         57.330000  0.000000   0.000000  

  
  ERROR 211: invalid number  at line 1912 of [XSECT] section:
  A10_4.1          RECT_OPEN    0.000000         57.330000  0.000000   0.000000  

  
  ERROR 211: invalid number  at line 1913 of [XSECT] section:
  A2_4.1           RECT_OPEN    0.000000         57.330000  0.000000   0.000000  

  
  ERROR 211: invalid number  at line 1914 of [XSECT] section:
  A3_4.1           RECT_OPEN    0.000000         57.330000  0.000000   0.000000  

  
  ERROR 211: invalid number  at line 1915 of [XSECT] section:
  A4_4.1           RECT_OPEN    0.000000         57.330000  0.000000   0.000000  

  
  ERROR 211: invalid number  at line 1916 of [XSECT] section:
  A5_4.1           RECT_OPEN    0.000000         57.330000  0.000000   0.000000  

  
  ERROR 211: invalid number  at line 1917 of [XSECT] section:
  A6_4.1           RECT_OPEN    0.000000         57.330000  0.000000   0.000000  

  
  ERROR 211: invalid number  at line 1918 of [XSECT] section:
  A7_4.1           RECT_OPEN    0.000000         57.330000  0.000000   0.000000  

  
  ERROR 211: invalid number  at line 1919 of [XSECT] section:
  A8_4.1           RECT_OPEN    0.000000         57.330000  0.000000   0.000000  

  
  ERROR 211: invalid number  at line 1920 of [XSECT] section:
  A9_4.1           RECT_OPEN    0.000000         57.330000  0.000000   0.000000  

  
  ERROR 211: invalid number  at line 1924 of [XSECT] section:
  FT10out1w.1      TRIANGULAR   0.000000         432.000000 0.000000   0.000000  

  
  ERROR 211: invalid number  at line 1925 of [XSECT] section:
  FT10out2w.1      TRIANGULAR   0.000000         432.000000 0.000000   0.000000  

  
  ERROR 211: invalid number  at line 1926 of [XSECT] section:
  FT11out1w.1      TRIANGULAR   0.000000         432.000000 0.000000   0.000000  

  
  ERROR 211: invalid number  at line 1927 of [XSECT] section:
  FT11out2w.1      TRIANGULAR   0.000000         432.000000 0.000000   0.000000  

  
  ERROR 211: invalid number  at line 1928 of [XSECT] section:
  FT12out1w.1      TRIANGULAR   0.000000         432.000000 0.000000   0.000000  

  
  ERROR 211: invalid number  at line 1929 of [XSECT] section:
  FT12out2w.1      TRIANGULAR   0.000000         432.000000 0.000000   0.000000  

  
  ERROR 211: invalid number  at line 1930 of [XSECT] section:
  FT13out1w.1      TRIANGULAR   0.000000         432.000000 0.000000   0.000000  

  
  ERROR 211: invalid number  at line 1931 of [XSECT] section:
  FT13out2w.1      TRIANGULAR   0.000000         432.000000 0.000000   0.000000  

  
  ERROR 211: invalid number  at line 1932 of [XSECT] section:
  FT14out1w.1      TRIANGULAR   0.000000         432.000000 0.000000   0.000000  

  
  ERROR 211: invalid number  at line 1933 of [XSECT] section:
  FT14out2w.1      TRIANGULAR   0.000000         432.000000 0.000000   0.000000  

  
  ERROR 211: invalid number  at line 1934 of [XSECT] section:
  FT15out1w.1      TRIANGULAR   0.000000         432.000000 0.000000   0.000000  

  
  ERROR 211: invalid number  at line 1935 of [XSECT] section:
  FT15out2w.1      TRIANGULAR   0.000000         432.000000 0.000000   0.000000  

  
  ERROR 211: invalid number  at line 1936 of [XSECT] section:
  FT16out1w.1      TRIANGULAR   0.000000         432.000000 0.000000   0.000000  

  
  ERROR 211: invalid number  at line 1937 of [XSECT] section:
  FT16out2w.1      TRIANGULAR   0.000000         432.000000 0.000000   0.000000  

  
  ERROR 211: invalid number  at line 1938 of [XSECT] section:
  FT17out1w.1      TRIANGULAR   0.000000         432.000000 0.000000   0.000000  

  
  ERROR 211: invalid number  at line 1939 of [XSECT] section:
  FT17out2w.1      TRIANGULAR   0.000000         432.000000 0.000000   0.000000  

  
  ERROR 211: invalid number  at line 1940 of [XSECT] section:
  FT18out1w.1      TRIANGULAR   0.000000         432.000000 0.000000   0.000000  

  
  ERROR 211: invalid number  at line 1941 of [XSECT] section:
  FT18out2w.1      TRIANGULAR   0.000000         432.000000 0.000000   0.000000  

  
  ERROR 211: invalid number  at line 1942 of [XSECT] section:
  FT19out1w.1      TRIANGULAR   0.000000         432.000000 0.000000   0.000000  

  
  ERROR 211: invalid number  at line 1943 of [XSECT] section:
  FT19out2w.1      TRIANGULAR   0.000000         432.000000 0.000000   0.000000  

  
  ERROR 211: invalid number  at line 1944 of [XSECT] section:
  FT1out1w.1       TRIANGULAR   0.000000         432.000000 0.000000   0.000000  

  
  ERROR 211: invalid number  at line 1945 of [XSECT] section:
  FT1out2w.1       TRIANGULAR   0.000000         432.000000 0.000000   0.000000  

  
  ERROR 211: invalid number  at line 1946 of [XSECT] section:
  FT20out1w.1      TRIANGULAR   0.000000         432.000000 0.000000   0.000000  

  
  ERROR 211: invalid number  at line 1947 of [XSECT] section:
  FT20out2w.1      TRIANGULAR   0.000000         432.000000 0.000000   0.000000  

  
  ERROR 211: invalid number  at line 1948 of [XSECT] section:
  FT2out1w.1       TRIANGULAR   0.000000         432.000000 0.000000   0.000000  

  
  ERROR 211: invalid number  at line 1949 of [XSECT] section:
  FT2out2w.1       TRIANGULAR   0.000000         432.000000 0.000000   0.000000  

  
  ERROR 211: invalid number  at line 1950 of [XSECT] section:
  FT3out1w.1       TRIANGULAR   0.000000         432.000000 0.000000   0.000000  

  
  ERROR 211: invalid number  at line 1951 of [XSECT] section:
  FT3out2w.1       TRIANGULAR   0.000000         432.000000 0.000000   0.000000  

  
  ERROR 211: invalid number  at line 1952 of [XSECT] section:
  FT4out1w.1       TRIANGULAR   0.000000         432.000000 0.000000   0.000000  

  
  ERROR 211: invalid number  at line 1953 of [XSECT] section:
  FT4out2w.1       TRIANGULAR   0.000000         432.000000 0.000000   0.000000  

  
  ERROR 211: invalid number  at line 1954 of [XSECT] section:
  FT5out1w.1       TRIANGULAR   0.000000         432.000000 0.000000   0.000000  

  
  ERROR 211: invalid number  at line 1955 of [XSECT] section:
  FT5out2w.1       TRIANGULAR   0.000000         432.000000 0.000000   0.000000  

  
  ERROR 211: invalid number  at line 1956 of [XSECT] section:
  FT6out1w.1       TRIANGULAR   0.000000         432.000000 0.000000   0.000000  

  
  ERROR 211: invalid number  at line 1957 of [XSECT] section:
  FT6out2w.1       TRIANGULAR   0.000000         432.000000 0.000000   0.000000  

  
  ERROR 211: invalid number  at line 1958 of [XSECT] section:
  FT7out1w.1       TRIANGULAR   0.000000         432.000000 0.000000   0.000000  

  
  ERROR 211: invalid number  at line 1959 of [XSECT] section:
  FT7out2w.1       TRIANGULAR   0.000000         432.000000 0.000000   0.000000  

  
  ERROR 211: invalid number  at line 1960 of [XSECT] section:
  FT8out1w.1       TRIANGULAR   0.000000         432.000000 0.000000   0.000000  

  
  ERROR 211: invalid number  at line 1961 of [XSECT] section:
  FT8out2w.1       TRIANGULAR   0.000000         432.000000 0.000000   0.000000  

  
  ERROR 211: invalid number  at line 1962 of [XSECT] section:
  FT9out1w.1       TRIANGULAR   0.000000         432.000000 0.000000   0.000000  

  
  ERROR 211: invalid number  at line 1963 of [XSECT] section:
  FT9out2w.1       TRIANGULAR   0.000000         432.000000 0.000000   0.000000  

  
  ERROR 211: invalid number  at line 1969 of [XSECT] section:
  P11_A.1          RECT_OPEN    0.000000         10.000000  0.000000   0.000000  

  
  ERROR 211: invalid number  at line 1970 of [XSECT] section:
  P11_Wout.1       RECT_OPEN    0.000000         139.500000 0.000000   0.000000  

  
  ERROR 211: invalid number  at line 1971 of [XSECT] section:
  P12_A.1          RECT_OPEN    0.000000         10.000000  0.000000   0.000000  

  
  ERROR 211: invalid number  at line 1972 of [XSECT] section:
  P12_Wout.1       RECT_OPEN    0.000000         139.500000 0.000000   0.000000  

  
  ERROR 211: invalid number  at line 1973 of [XSECT] section:
  P13_A.1          RECT_OPEN    0.000000         10.000000  0.000000   0.000000  

  
  ERROR 211: invalid number  at line 1974 of [XSECT] section:
  P13_Wout.1       RECT_OPEN    0.000000         139.500000 0.000000   0.000000  

  
  ERROR 211: invalid number  at line 1975 of [XSECT] section:
  P14_A.1          RECT_OPEN    0.000000         10.000000  0.000000   0.000000  

  
  ERROR 211: invalid number  at line 1976 of [XSECT] section:
  P14_Wout.1       RECT_OPEN    0.000000         139.500000 0.000000   0.000000  

  
  ERROR 211: invalid number  at line 1977 of [XSECT] section:
  P15_A.1          RECT_OPEN    0.000000         10.000000  0.000000   0.000000  

  
  ERROR 211: invalid number  at line 1978 of [XSECT] section:
  P15_Wout.1       RECT_OPEN    0.000000         139.500000 0.000000   0.000000  

  
  ERROR 211: invalid number  at line 1979 of [XSECT] section:
  P16_A.1          RECT_OPEN    0.000000         10.000000  0.000000   0.000000  

  
  ERROR 211: invalid number  at line 1980 of [XSECT] section:
  P16_Wout.1       RECT_OPEN    0.000000         139.500000 0.000000   0.000000  

  
  ERROR 211: invalid number  at line 1981 of [XSECT] section:
  P17_A.1          RECT_OPEN    0.000000         10.000000  0.000000   0.000000  

  
  ERROR 211: invalid number  at line 1982 of [XSECT] section:
  P17_Wout.1       RECT_OPEN    0.000000         139.500000 0.000000   0.000000  

  
  ERROR 211: invalid number  at line 1983 of [XSECT] section:
  P21_A.1          RECT_OPEN    0.000000         10.000000  0.000000   0.000000  

  
  ERROR 211: invalid number  at line 1984 of [XSECT] section:
  P21_Wout.1       RECT_OPEN    0.000000         139.500000 0.000000   0.000000  

  
  ERROR 211: invalid number  at line 1985 of [XSECT] section:
  P22_A.1          RECT_OPEN    0.000000         10.000000  0.000000   0.000000  

  
  ERROR 211: invalid number  at line 1986 of [XSECT] section:
  P22_Wout.1       RECT_OPEN    0.000000         139.500000 0.000000   0.000000  

  
  ERROR 211: invalid number  at line 1987 of [XSECT] section:
  P23_A.1          RECT_OPEN    0.000000         10.000000  0.000000   0.000000  

  
  ERROR 211: invalid number  at line 1988 of [XSECT] section:
  P23_Wout.1       RECT_OPEN    0.000000         139.500000 0.000000   0.000000  

  
  ERROR 211: invalid number  at line 1989 of [XSECT] section:
  P24_A.1          RECT_OPEN    0.000000         10.000000  0.000000   0.000000  

  
  ERROR 211: invalid number  at line 1990 of [XSECT] section:
  P24_Wout.1       RECT_OPEN    0.000000         139.500000 0.000000   0.000000  

  
  ERROR 211: invalid number  at line 1991 of [XSECT] section:
  P25_A.1          RECT_OPEN    0.000000         10.000000  0.000000   0.000000  

  
  ERROR 211: invalid number  at line 1992 of [XSECT] section:
  P25_Wout.1       RECT_OPEN    0.000000         139.500000 0.000000   0.000000  

  
  ERROR 211: invalid number  at line 1993 of [XSECT] section:
  P26_A.1          RECT_OPEN    0.000000         10.000000  0.000000   0.000000  

  
  ERROR 211: invalid number  at line 1994 of [XSECT] section:
  P26_Wout.1       RECT_OPEN    0.000000         139.500000 0.000000   0.000000  

  
  ERROR 211: invalid number  at line 1995 of [XSECT] section:
  P27_A.1          RECT_OPEN    0.000000         10.000000  0.000000   0.000000  

  
  ERROR 211: invalid number  at line 1996 of [XSECT] section:
  P27_Wout.1       RECT_OPEN    0.000000         139.500000 0.000000   0.000000  

  
  ERROR 211: invalid number  at line 1997 of [XSECT] section:
  P31_A.2          RECT_OPEN    0.000000         10.000000  0.000000   0.000000  

  
  ERROR 211: invalid number  at line 1998 of [XSECT] section:
  P31_Wout.1       RECT_OPEN    0.000000         139.500000 0.000000   0.000000  

  
  ERROR 211: invalid number  at line 1999 of [XSECT] section:
  P32_A.2          RECT_OPEN    0.000000         10.000000  0.000000   0.000000  

  
  ERROR 211: invalid number  at line 2000 of [XSECT] section:
  P32_Wout.1       RECT_OPEN    0.000000         139.500000 0.000000   0.000000  

  
  ERROR 211: invalid number  at line 2001 of [XSECT] section:
  P33_A.2          RECT_OPEN    0.000000         10.000000  0.000000   0.000000  

  
  ERROR 211: invalid number  at line 2002 of [XSECT] section:
  P33_Wout.1       RECT_OPEN    0.000000         139.500000 0.000000   0.000000  

  
  ERROR 211: invalid number  at line 2003 of [XSECT] section:
  P34_A.2          RECT_OPEN    0.000000         10.000000  0.000000   0.000000  

  
  ERROR 211: invalid number  at line 2004 of [XSECT] section:
  P34_Wout.1       RECT_OPEN    0.000000         139.500000 0.000000   0.000000  

  
  ERROR 211: invalid number  at line 2005 of [XSECT] section:
  P35_A.2          RECT_OPEN    0.000000         10.000000  0.000000   0.000000  

  
  ERROR 211: invalid number  at line 2006 of [XSECT] section:
  P35_Wout.1       RECT_OPEN    0.000000         139.500000 0.000000   0.000000  

  
  ERROR 211: invalid number  at line 2007 of [XSECT] section:
  P36_A.2          RECT_OPEN    0.000000         10.000000  0.000000   0.000000  

  
  ERROR 211: invalid number  at line 2008 of [XSECT] section:
  P36_Wout.1       RECT_OPEN    0.000000         139.500000 0.000000   0.000000  

  
  ERROR 211: invalid number  at line 2009 of [XSECT] section:
  P37_A.2          RECT_OPEN    0.000000         10.000000  0.000000   0.000000  

  
  Maximum error count exceeded.

  Analysis begun on:  Tue Jun 23 20:58:02 2026
  Analysis ended on:  Tue Jun 23 20:58:02 2026
  Total elapsed time: < 1 sec