
  EPA STORM WATER MANAGEMENT MODEL - VERSION 5.2 (Build 5.2.4)
  ------------------------------------------------------------

  
  ERROR 205: invalid keyword GENERAL at line 2124 of [CURVE] section:
  DEPTHVSDAMAGE	GENERAL	0.000000	0.030000


  Analysis begun on:  Tue Jun 23 20:58:02 2026
  Analysis ended on:  Tue Jun 23 20:58:02 2026
  Total elapsed time: < 1 sec