
  EPA STORM WATER MANAGEMENT MODEL - VERSION 5.2 (Build 5.2.4)
  ------------------------------------------------------------

  WARNING 01: wet weather time step reduced to recording interval for Rain Gage NewRiver_100year
  WARNING 08: elevation drop exceeds length for Conduit C10122
  WARNING 08: elevation drop exceeds length for Conduit C10147
  WARNING 08: elevation drop exceeds length for Conduit C10169
  WARNING 08: elevation drop exceeds length for Conduit C10174
  WARNING 08: elevation drop exceeds length for Conduit C10261
  WARNING 08: elevation drop exceeds length for Conduit C10263
  WARNING 08: elevation drop exceeds length for Conduit C10274
  WARNING 08: elevation drop exceeds length for Conduit C10281
  WARNING 08: elevation drop exceeds length for Conduit C10288
  WARNING 08: elevation drop exceeds length for Conduit C10290
  WARNING 04: minimum elevation drop used for Conduit C1037
  WARNING 04: minimum elevation drop used for Conduit C1038
  WARNING 04: minimum elevation drop used for Conduit C1064
  WARNING 04: minimum elevation drop used for Conduit C1065
  WARNING 04: minimum elevation drop used for Conduit C1084
  WARNING 04: minimum elevation drop used for Conduit C1085
  WARNING 04: minimum elevation drop used for Conduit C1086
  WARNING 04: minimum elevation drop used for Conduit C1088
  WARNING 04: minimum elevation drop used for Conduit C1107
  WARNING 04: minimum elevation drop used for Conduit C1155
  WARNING 04: minimum elevation drop used for Conduit C1156
  WARNING 04: minimum elevation drop used for Conduit C1157
  WARNING 04: minimum elevation drop used for Conduit C1158
  WARNING 04: minimum elevation drop used for Conduit C1169
  WARNING 04: minimum elevation drop used for Conduit C1170
  WARNING 04: minimum elevation drop used for Conduit C1171
  WARNING 04: minimum elevation drop used for Conduit C1172
  WARNING 04: minimum elevation drop used for Conduit C1175
  WARNING 04: minimum elevation drop used for Conduit C1176
  WARNING 04: minimum elevation drop used for Conduit C1177
  WARNING 04: minimum elevation drop used for Conduit C1181
  WARNING 04: minimum elevation drop used for Conduit C1182
  WARNING 04: minimum elevation drop used for Conduit C1189
  WARNING 04: minimum elevation drop used for Conduit C1203
  WARNING 04: minimum elevation drop used for Conduit C1236
  WARNING 04: minimum elevation drop used for Conduit C1237
  WARNING 04: minimum elevation drop used for Conduit C125
  WARNING 04: minimum elevation drop used for Conduit C1264
  WARNING 04: minimum elevation drop used for Conduit C1265
  WARNING 04: minimum elevation drop used for Conduit C1266
  WARNING 04: minimum elevation drop used for Conduit C1267
  WARNING 04: minimum elevation drop used for Conduit C1268
  WARNING 08: elevation drop exceeds length for Conduit C131
  WARNING 04: minimum elevation drop used for Conduit C1327
  WARNING 04: minimum elevation drop used for Conduit C1328
  WARNING 04: minimum elevation drop used for Conduit C1332
  WARNING 04: minimum elevation drop used for Conduit C1344
  WARNING 04: minimum elevation drop used for Conduit C1345
  WARNING 04: minimum elevation drop used for Conduit C1346
  WARNING 04: minimum elevation drop used for Conduit C1347
  WARNING 04: minimum elevation drop used for Conduit C1348
  WARNING 04: minimum elevation drop used for Conduit C1349
  WARNING 04: minimum elevation drop used for Conduit C1371
  WARNING 04: minimum elevation drop used for Conduit C1385
  WARNING 04: minimum elevation drop used for Conduit C1386
  WARNING 04: minimum elevation drop used for Conduit C1400
  WARNING 04: minimum elevation drop used for Conduit C1401
  WARNING 04: minimum elevation drop used for Conduit C1427
  WARNING 04: minimum elevation drop used for Conduit C1431
  WARNING 04: minimum elevation drop used for Conduit C1432
  WARNING 04: minimum elevation drop used for Conduit C1435
  WARNING 04: minimum elevation drop used for Conduit C1436
  WARNING 04: minimum elevation drop used for Conduit C1437
  WARNING 04: minimum elevation drop used for Conduit C1438
  WARNING 04: minimum elevation drop used for Conduit C1439
  WARNING 04: minimum elevation drop used for Conduit C144
  WARNING 04: minimum elevation drop used for Conduit C1444
  WARNING 04: minimum elevation drop used for Conduit C1445
  WARNING 04: minimum elevation drop used for Conduit C1446
  WARNING 04: minimum elevation drop used for Conduit C1447
  WARNING 04: minimum elevation drop used for Conduit C1448
  WARNING 04: minimum elevation drop used for Conduit C1459
  WARNING 04: minimum elevation drop used for Conduit C1460
  WARNING 04: minimum elevation drop used for Conduit C1461
  WARNING 04: minimum elevation drop used for Conduit C1462
  WARNING 04: minimum elevation drop used for Conduit C1464
  WARNING 04: minimum elevation drop used for Conduit C1465
  WARNING 04: minimum elevation drop used for Conduit C1466
  WARNING 04: minimum elevation drop used for Conduit C1467
  WARNING 04: minimum elevation drop used for Conduit C1468
  WARNING 04: minimum elevation drop used for Conduit C1469
  WARNING 04: minimum elevation drop used for Conduit C1470
  WARNING 04: minimum elevation drop used for Conduit C1488
  WARNING 04: minimum elevation drop used for Conduit C1489
  WARNING 04: minimum elevation drop used for Conduit C1490
  WARNING 04: minimum elevation drop used for Conduit C1491
  WARNING 04: minimum elevation drop used for Conduit C1501
  WARNING 04: minimum elevation drop used for Conduit C1502
  WARNING 04: minimum elevation drop used for Conduit C1503
  WARNING 04: minimum elevation drop used for Conduit C1513
  WARNING 04: minimum elevation drop used for Conduit C1514
  WARNING 04: minimum elevation drop used for Conduit C1515
  WARNING 04: minimum elevation drop used for Conduit C1516
  WARNING 04: minimum elevation drop used for Conduit C1517
  WARNING 04: minimum elevation drop used for Conduit C1518
  WARNING 04: minimum elevation drop used for Conduit C1519
  WARNING 04: minimum elevation drop used for Conduit C1520
  WARNING 04: minimum elevation drop used for Conduit C1521
  WARNING 08: elevation drop exceeds length for Conduit C153
  WARNING 04: minimum elevation drop used for Conduit C1536
  WARNING 04: minimum elevation drop used for Conduit C1537
  WARNING 04: minimum elevation drop used for Conduit C1538
  WARNING 04: minimum elevation drop used for Conduit C1539
  WARNING 08: elevation drop exceeds length for Conduit C154
  WARNING 04: minimum elevation drop used for Conduit C1540
  WARNING 04: minimum elevation drop used for Conduit C1541
  WARNING 04: minimum elevation drop used for Conduit C1542
  WARNING 04: minimum elevation drop used for Conduit C1543
  WARNING 04: minimum elevation drop used for Conduit C1544
  WARNING 04: minimum elevation drop used for Conduit C1545
  WARNING 04: minimum elevation drop used for Conduit C1546
  WARNING 04: minimum elevation drop used for Conduit C1547
  WARNING 04: minimum elevation drop used for Conduit C1548
  WARNING 04: minimum elevation drop used for Conduit C1549
  WARNING 04: minimum elevation drop used for Conduit C1550
  WARNING 04: minimum elevation drop used for Conduit C1551
  WARNING 04: minimum elevation drop used for Conduit C1552
  WARNING 08: elevation drop exceeds length for Conduit C157
  WARNING 04: minimum elevation drop used for Conduit C1585
  WARNING 04: minimum elevation drop used for Conduit C1586
  WARNING 04: minimum elevation drop used for Conduit C1601
  WARNING 04: minimum elevation drop used for Conduit C1602
  WARNING 04: minimum elevation drop used for Conduit C1606
  WARNING 04: minimum elevation drop used for Conduit C1610
  WARNING 04: minimum elevation drop used for Conduit C1611
  WARNING 04: minimum elevation drop used for Conduit C1615
  WARNING 04: minimum elevation drop used for Conduit C1616
  WARNING 04: minimum elevation drop used for Conduit C1622
  WARNING 04: minimum elevation drop used for Conduit C1623
  WARNING 04: minimum elevation drop used for Conduit C1624
  WARNING 04: minimum elevation drop used for Conduit C1625
  WARNING 04: minimum elevation drop used for Conduit C1626
  WARNING 04: minimum elevation drop used for Conduit C1627
  WARNING 04: minimum elevation drop used for Conduit C1631
  WARNING 04: minimum elevation drop used for Conduit C1632
  WARNING 04: minimum elevation drop used for Conduit C1633
  WARNING 04: minimum elevation drop used for Conduit C1634
  WARNING 04: minimum elevation drop used for Conduit C1637
  WARNING 04: minimum elevation drop used for Conduit C1638
  WARNING 04: minimum elevation drop used for Conduit C1642
  WARNING 04: minimum elevation drop used for Conduit C1650
  WARNING 04: minimum elevation drop used for Conduit C1651
  WARNING 04: minimum elevation drop used for Conduit C1652
  WARNING 04: minimum elevation drop used for Conduit C1659
  WARNING 04: minimum elevation drop used for Conduit C1660
  WARNING 04: minimum elevation drop used for Conduit C1662
  WARNING 04: minimum elevation drop used for Conduit C1663
  WARNING 04: minimum elevation drop used for Conduit C1664
  WARNING 04: minimum elevation drop used for Conduit C1665
  WARNING 04: minimum elevation drop used for Conduit C1666
  WARNING 04: minimum elevation drop used for Conduit C1673
  WARNING 04: minimum elevation drop used for Conduit C1674
  WARNING 04: minimum elevation drop used for Conduit C1683
  WARNING 04: minimum elevation drop used for Conduit C1684
  WARNING 04: minimum elevation drop used for Conduit C1688
  WARNING 04: minimum elevation drop used for Conduit C1689
  WARNING 04: minimum elevation drop used for Conduit C1690
  WARNING 04: minimum elevation drop used for Conduit C1692
  WARNING 04: minimum elevation drop used for Conduit C1696
  WARNING 04: minimum elevation drop used for Conduit C1697
  WARNING 04: minimum elevation drop used for Conduit C1698
  WARNING 04: minimum elevation drop used for Conduit C1699
  WARNING 04: minimum elevation drop used for Conduit C1705
  WARNING 04: minimum elevation drop used for Conduit C1706
  WARNING 04: minimum elevation drop used for Conduit C1708
  WARNING 04: minimum elevation drop used for Conduit C1709
  WARNING 04: minimum elevation drop used for Conduit C1714
  WARNING 04: minimum elevation drop used for Conduit C1715
  WARNING 08: elevation drop exceeds length for Conduit C1719
  WARNING 04: minimum elevation drop used for Conduit C1720
  WARNING 04: minimum elevation drop used for Conduit C1721
  WARNING 04: minimum elevation drop used for Conduit C1722
  WARNING 04: minimum elevation drop used for Conduit C1723
  WARNING 04: minimum elevation drop used for Conduit C1731
  WARNING 04: minimum elevation drop used for Conduit C1736
  WARNING 04: minimum elevation drop used for Conduit C1737
  WARNING 04: minimum elevation drop used for Conduit C1738
  WARNING 04: minimum elevation drop used for Conduit C1739
  WARNING 04: minimum elevation drop used for Conduit C1740
  WARNING 04: minimum elevation drop used for Conduit C1741
  WARNING 04: minimum elevation drop used for Conduit C1746
  WARNING 04: minimum elevation drop used for Conduit C1747
  WARNING 04: minimum elevation drop used for Conduit C1748
  WARNING 04: minimum elevation drop used for Conduit C1750
  WARNING 04: minimum elevation drop used for Conduit C1751
  WARNING 04: minimum elevation drop used for Conduit C1752
  WARNING 04: minimum elevation drop used for Conduit C1753
  WARNING 04: minimum elevation drop used for Conduit C1756
  WARNING 04: minimum elevation drop used for Conduit C1757
  WARNING 04: minimum elevation drop used for Conduit C1774
  WARNING 04: minimum elevation drop used for Conduit C1775
  WARNING 04: minimum elevation drop used for Conduit C1776
  WARNING 04: minimum elevation drop used for Conduit C1777
  WARNING 04: minimum elevation drop used for Conduit C1781
  WARNING 04: minimum elevation drop used for Conduit C1782
  WARNING 04: minimum elevation drop used for Conduit C1786
  WARNING 04: minimum elevation drop used for Conduit C1789
  WARNING 04: minimum elevation drop used for Conduit C1790
  WARNING 04: minimum elevation drop used for Conduit C1795
  WARNING 04: minimum elevation drop used for Conduit C1796
  WARNING 04: minimum elevation drop used for Conduit C1797
  WARNING 04: minimum elevation drop used for Conduit C1798
  WARNING 04: minimum elevation drop used for Conduit C1799
  WARNING 04: minimum elevation drop used for Conduit C1800
  WARNING 04: minimum elevation drop used for Conduit C1801
  WARNING 04: minimum elevation drop used for Conduit C1802
  WARNING 04: minimum elevation drop used for Conduit C1803
  WARNING 04: minimum elevation drop used for Conduit C1807
  WARNING 04: minimum elevation drop used for Conduit C1810
  WARNING 04: minimum elevation drop used for Conduit C1811
  WARNING 04: minimum elevation drop used for Conduit C1812
  WARNING 04: minimum elevation drop used for Conduit C1849
  WARNING 04: minimum elevation drop used for Conduit C1850
  WARNING 04: minimum elevation drop used for Conduit C1851
  WARNING 04: minimum elevation drop used for Conduit C1852
  WARNING 04: minimum elevation drop used for Conduit C1853
  WARNING 04: minimum elevation drop used for Conduit C1854
  WARNING 04: minimum elevation drop used for Conduit C1855
  WARNING 04: minimum elevation drop used for Conduit C1856
  WARNING 04: minimum elevation drop used for Conduit C1857
  WARNING 04: minimum elevation drop used for Conduit C1886
  WARNING 04: minimum elevation drop used for Conduit C1888
  WARNING 04: minimum elevation drop used for Conduit C1889
  WARNING 04: minimum elevation drop used for Conduit C1890
  WARNING 04: minimum elevation drop used for Conduit C1892
  WARNING 04: minimum elevation drop used for Conduit C1893
  WARNING 04: minimum elevation drop used for Conduit C1899
  WARNING 04: minimum elevation drop used for Conduit C1901
  WARNING 04: minimum elevation drop used for Conduit C1902
  WARNING 04: minimum elevation drop used for Conduit C1903
  WARNING 04: minimum elevation drop used for Conduit C1904
  WARNING 04: minimum elevation drop used for Conduit C1910
  WARNING 04: minimum elevation drop used for Conduit C1911
  WARNING 04: minimum elevation drop used for Conduit C1919
  WARNING 04: minimum elevation drop used for Conduit C1920
  WARNING 04: minimum elevation drop used for Conduit C1921
  WARNING 04: minimum elevation drop used for Conduit C1922
  WARNING 04: minimum elevation drop used for Conduit C1923
  WARNING 04: minimum elevation drop used for Conduit C1924
  WARNING 04: minimum elevation drop used for Conduit C1925
  WARNING 04: minimum elevation drop used for Conduit C1926
  WARNING 04: minimum elevation drop used for Conduit C1927
  WARNING 04: minimum elevation drop used for Conduit C1929
  WARNING 04: minimum elevation drop used for Conduit C1930
  WARNING 04: minimum elevation drop used for Conduit C1931
  WARNING 04: minimum elevation drop used for Conduit C1932
  WARNING 04: minimum elevation drop used for Conduit C1933
  WARNING 04: minimum elevation drop used for Conduit C1934
  WARNING 04: minimum elevation drop used for Conduit C1935
  WARNING 04: minimum elevation drop used for Conduit C1936
  WARNING 04: minimum elevation drop used for Conduit C1937
  WARNING 04: minimum elevation drop used for Conduit C1939
  WARNING 04: minimum elevation drop used for Conduit C1940
  WARNING 04: minimum elevation drop used for Conduit C1941
  WARNING 04: minimum elevation drop used for Conduit C1942
  WARNING 04: minimum elevation drop used for Conduit C1943
  WARNING 04: minimum elevation drop used for Conduit C1944
  WARNING 04: minimum elevation drop used for Conduit C1945
  WARNING 04: minimum elevation drop used for Conduit C1946
  WARNING 04: minimum elevation drop used for Conduit C1947
  WARNING 04: minimum elevation drop used for Conduit C1948
  WARNING 04: minimum elevation drop used for Conduit C1954
  WARNING 04: minimum elevation drop used for Conduit C1955
  WARNING 04: minimum elevation drop used for Conduit C1956
  WARNING 04: minimum elevation drop used for Conduit C1960
  WARNING 04: minimum elevation drop used for Conduit C1961
  WARNING 04: minimum elevation drop used for Conduit C1962
  WARNING 04: minimum elevation drop used for Conduit C1963
  WARNING 04: minimum elevation drop used for Conduit C1964
  WARNING 04: minimum elevation drop used for Conduit C1965
  WARNING 04: minimum elevation drop used for Conduit C1966
  WARNING 04: minimum elevation drop used for Conduit C1967
  WARNING 04: minimum elevation drop used for Conduit C1968
  WARNING 04: minimum elevation drop used for Conduit C1969
  WARNING 04: minimum elevation drop used for Conduit C1971
  WARNING 04: minimum elevation drop used for Conduit C1972
  WARNING 04: minimum elevation drop used for Conduit C1976
  WARNING 04: minimum elevation drop used for Conduit C1977
  WARNING 04: minimum elevation drop used for Conduit C1981
  WARNING 04: minimum elevation drop used for Conduit C1982
  WARNING 04: minimum elevation drop used for Conduit C1983
  WARNING 04: minimum elevation drop used for Conduit C1984
  WARNING 04: minimum elevation drop used for Conduit C1993
  WARNING 04: minimum elevation drop used for Conduit C1994
  WARNING 04: minimum elevation drop used for Conduit C1995
  WARNING 04: minimum elevation drop used for Conduit C1996
  WARNING 04: minimum elevation drop used for Conduit C1997
  WARNING 04: minimum elevation drop used for Conduit C1998
  WARNING 04: minimum elevation drop used for Conduit C1999
  WARNING 04: minimum elevation drop used for Conduit C2000
  WARNING 04: minimum elevation drop used for Conduit C2001
  WARNING 04: minimum elevation drop used for Conduit C2003
  WARNING 04: minimum elevation drop used for Conduit C2005
  WARNING 04: minimum elevation drop used for Conduit C2006
  WARNING 04: minimum elevation drop used for Conduit C2008
  WARNING 04: minimum elevation drop used for Conduit C2009
  WARNING 04: minimum elevation drop used for Conduit C2010
  WARNING 04: minimum elevation drop used for Conduit C2012
  WARNING 04: minimum elevation drop used for Conduit C2013
  WARNING 04: minimum elevation drop used for Conduit C2014
  WARNING 04: minimum elevation drop used for Conduit C2015
  WARNING 04: minimum elevation drop used for Conduit C2028
  WARNING 04: minimum elevation drop used for Conduit C2029
  WARNING 04: minimum elevation drop used for Conduit C2030
  WARNING 04: minimum elevation drop used for Conduit C2031
  WARNING 04: minimum elevation drop used for Conduit C2035
  WARNING 04: minimum elevation drop used for Conduit C2037
  WARNING 04: minimum elevation drop used for Conduit C2038
  WARNING 04: minimum elevation drop used for Conduit C2039
  WARNING 04: minimum elevation drop used for Conduit C2040
  WARNING 04: minimum elevation drop used for Conduit C2041
  WARNING 04: minimum elevation drop used for Conduit C2042
  WARNING 04: minimum elevation drop used for Conduit C2043
  WARNING 04: minimum elevation drop used for Conduit C2044
  WARNING 04: minimum elevation drop used for Conduit C2046
  WARNING 04: minimum elevation drop used for Conduit C2047
  WARNING 04: minimum elevation drop used for Conduit C2048
  WARNING 04: minimum elevation drop used for Conduit C2049
  WARNING 04: minimum elevation drop used for Conduit C2050
  WARNING 04: minimum elevation drop used for Conduit C2052
  WARNING 04: minimum elevation drop used for Conduit C2053
  WARNING 04: minimum elevation drop used for Conduit C2054
  WARNING 04: minimum elevation drop used for Conduit C2056
  WARNING 04: minimum elevation drop used for Conduit C2057
  WARNING 04: minimum elevation drop used for Conduit C2058
  WARNING 04: minimum elevation drop used for Conduit C2059
  WARNING 04: minimum elevation drop used for Conduit C2064
  WARNING 04: minimum elevation drop used for Conduit C2065
  WARNING 04: minimum elevation drop used for Conduit C2070
  WARNING 04: minimum elevation drop used for Conduit C2071
  WARNING 04: minimum elevation drop used for Conduit C2074
  WARNING 04: minimum elevation drop used for Conduit C2075
  WARNING 04: minimum elevation drop used for Conduit C2076
  WARNING 04: minimum elevation drop used for Conduit C2078
  WARNING 04: minimum elevation drop used for Conduit C2079
  WARNING 04: minimum elevation drop used for Conduit C2080
  WARNING 04: minimum elevation drop used for Conduit C2081
  WARNING 04: minimum elevation drop used for Conduit C2082
  WARNING 04: minimum elevation drop used for Conduit C2083
  WARNING 04: minimum elevation drop used for Conduit C2084
  WARNING 04: minimum elevation drop used for Conduit C2085
  WARNING 04: minimum elevation drop used for Conduit C2087
  WARNING 04: minimum elevation drop used for Conduit C2088
  WARNING 04: minimum elevation drop used for Conduit C2089
  WARNING 04: minimum elevation drop used for Conduit C2090
  WARNING 04: minimum elevation drop used for Conduit C2092
  WARNING 04: minimum elevation drop used for Conduit C2093
  WARNING 04: minimum elevation drop used for Conduit C2094
  WARNING 04: minimum elevation drop used for Conduit C2095
  WARNING 04: minimum elevation drop used for Conduit C2096
  WARNING 04: minimum elevation drop used for Conduit C2099
  WARNING 04: minimum elevation drop used for Conduit C2100
  WARNING 04: minimum elevation drop used for Conduit C2106
  WARNING 04: minimum elevation drop used for Conduit C2110
  WARNING 04: minimum elevation drop used for Conduit C2111
  WARNING 04: minimum elevation drop used for Conduit C2112
  WARNING 04: minimum elevation drop used for Conduit C2113
  WARNING 04: minimum elevation drop used for Conduit C2119
  WARNING 04: minimum elevation drop used for Conduit C2120
  WARNING 04: minimum elevation drop used for Conduit C2134
  WARNING 04: minimum elevation drop used for Conduit C2135
  WARNING 04: minimum elevation drop used for Conduit C2136
  WARNING 04: minimum elevation drop used for Conduit C2137
  WARNING 04: minimum elevation drop used for Conduit C2138
  WARNING 04: minimum elevation drop used for Conduit C2139
  WARNING 04: minimum elevation drop used for Conduit C2140
  WARNING 04: minimum elevation drop used for Conduit C2141
  WARNING 04: minimum elevation drop used for Conduit C2142
  WARNING 04: minimum elevation drop used for Conduit C2150
  WARNING 04: minimum elevation drop used for Conduit C2151
  WARNING 04: minimum elevation drop used for Conduit C2152
  WARNING 04: minimum elevation drop used for Conduit C2154
  WARNING 04: minimum elevation drop used for Conduit C2158
  WARNING 04: minimum elevation drop used for Conduit C2166
  WARNING 04: minimum elevation drop used for Conduit C2171
  WARNING 04: minimum elevation drop used for Conduit C2172
  WARNING 04: minimum elevation drop used for Conduit C2176
  WARNING 04: minimum elevation drop used for Conduit C2177
  WARNING 04: minimum elevation drop used for Conduit C2183
  WARNING 04: minimum elevation drop used for Conduit C2185
  WARNING 04: minimum elevation drop used for Conduit C2186
  WARNING 04: minimum elevation drop used for Conduit C2187
  WARNING 04: minimum elevation drop used for Conduit C2188
  WARNING 04: minimum elevation drop used for Conduit C2189
  WARNING 04: minimum elevation drop used for Conduit C2240
  WARNING 04: minimum elevation drop used for Conduit C2248
  WARNING 04: minimum elevation drop used for Conduit C2249
  WARNING 04: minimum elevation drop used for Conduit C2252
  WARNING 04: minimum elevation drop used for Conduit C2254
  WARNING 04: minimum elevation drop used for Conduit C2255
  WARNING 04: minimum elevation drop used for Conduit C2259
  WARNING 04: minimum elevation drop used for Conduit C2261
  WARNING 04: minimum elevation drop used for Conduit C2262
  WARNING 04: minimum elevation drop used for Conduit C2263
  WARNING 04: minimum elevation drop used for Conduit C2264
  WARNING 04: minimum elevation drop used for Conduit C2265
  WARNING 08: elevation drop exceeds length for Conduit C227
  WARNING 04: minimum elevation drop used for Conduit C2271
  WARNING 04: minimum elevation drop used for Conduit C2272
  WARNING 04: minimum elevation drop used for Conduit C2274
  WARNING 04: minimum elevation drop used for Conduit C2275
  WARNING 04: minimum elevation drop used for Conduit C2276
  WARNING 04: minimum elevation drop used for Conduit C2277
  WARNING 04: minimum elevation drop used for Conduit C2280
  WARNING 04: minimum elevation drop used for Conduit C2281
  WARNING 04: minimum elevation drop used for Conduit C2286
  WARNING 04: minimum elevation drop used for Conduit C2288
  WARNING 04: minimum elevation drop used for Conduit C2289
  WARNING 04: minimum elevation drop used for Conduit C2290
  WARNING 04: minimum elevation drop used for Conduit C2291
  WARNING 04: minimum elevation drop used for Conduit C2292
  WARNING 04: minimum elevation drop used for Conduit C2293
  WARNING 04: minimum elevation drop used for Conduit C2294
  WARNING 04: minimum elevation drop used for Conduit C2295
  WARNING 04: minimum elevation drop used for Conduit C2296
  WARNING 04: minimum elevation drop used for Conduit C2297
  WARNING 04: minimum elevation drop used for Conduit C2298
  WARNING 04: minimum elevation drop used for Conduit C2300
  WARNING 04: minimum elevation drop used for Conduit C2303
  WARNING 04: minimum elevation drop used for Conduit C2304
  WARNING 04: minimum elevation drop used for Conduit C2305
  WARNING 04: minimum elevation drop used for Conduit C2306
  WARNING 04: minimum elevation drop used for Conduit C2307
  WARNING 04: minimum elevation drop used for Conduit C2308
  WARNING 04: minimum elevation drop used for Conduit C2309
  WARNING 04: minimum elevation drop used for Conduit C2310
  WARNING 04: minimum elevation drop used for Conduit C2311
  WARNING 04: minimum elevation drop used for Conduit C2313
  WARNING 04: minimum elevation drop used for Conduit C2314
  WARNING 04: minimum elevation drop used for Conduit C2317
  WARNING 04: minimum elevation drop used for Conduit C2320
  WARNING 04: minimum elevation drop used for Conduit C2321
  WARNING 04: minimum elevation drop used for Conduit C2322
  WARNING 04: minimum elevation drop used for Conduit C2325
  WARNING 04: minimum elevation drop used for Conduit C2326
  WARNING 04: minimum elevation drop used for Conduit C2327
  WARNING 04: minimum elevation drop used for Conduit C2328
  WARNING 04: minimum elevation drop used for Conduit C2347
  WARNING 04: minimum elevation drop used for Conduit C2348
  WARNING 04: minimum elevation drop used for Conduit C2349
  WARNING 04: minimum elevation drop used for Conduit C2350
  WARNING 04: minimum elevation drop used for Conduit C2351
  WARNING 04: minimum elevation drop used for Conduit C2352
  WARNING 04: minimum elevation drop used for Conduit C2353
  WARNING 04: minimum elevation drop used for Conduit C2354
  WARNING 04: minimum elevation drop used for Conduit C2356
  WARNING 04: minimum elevation drop used for Conduit C2357
  WARNING 04: minimum elevation drop used for Conduit C2358
  WARNING 04: minimum elevation drop used for Conduit C2359
  WARNING 04: minimum elevation drop used for Conduit C2360
  WARNING 04: minimum elevation drop used for Conduit C2366
  WARNING 04: minimum elevation drop used for Conduit C2368
  WARNING 04: minimum elevation drop used for Conduit C2369
  WARNING 04: minimum elevation drop used for Conduit C2370
  WARNING 04: minimum elevation drop used for Conduit C2371
  WARNING 04: minimum elevation drop used for Conduit C2372
  WARNING 04: minimum elevation drop used for Conduit C2373
  WARNING 04: minimum elevation drop used for Conduit C2385
  WARNING 04: minimum elevation drop used for Conduit C2386
  WARNING 04: minimum elevation drop used for Conduit C2387
  WARNING 04: minimum elevation drop used for Conduit C2388
  WARNING 04: minimum elevation drop used for Conduit C2389
  WARNING 08: elevation drop exceeds length for Conduit C239
  WARNING 04: minimum elevation drop used for Conduit C2390
  WARNING 04: minimum elevation drop used for Conduit C2391
  WARNING 04: minimum elevation drop used for Conduit C2392
  WARNING 04: minimum elevation drop used for Conduit C2393
  WARNING 04: minimum elevation drop used for Conduit C2394
  WARNING 04: minimum elevation drop used for Conduit C2395
  WARNING 04: minimum elevation drop used for Conduit C2396
  WARNING 04: minimum elevation drop used for Conduit C2398
  WARNING 04: minimum elevation drop used for Conduit C2399
  WARNING 08: elevation drop exceeds length for Conduit C240
  WARNING 04: minimum elevation drop used for Conduit C2404
  WARNING 04: minimum elevation drop used for Conduit C2405
  WARNING 04: minimum elevation drop used for Conduit C2408
  WARNING 04: minimum elevation drop used for Conduit C2409
  WARNING 04: minimum elevation drop used for Conduit C2410
  WARNING 04: minimum elevation drop used for Conduit C2411
  WARNING 04: minimum elevation drop used for Conduit C2412
  WARNING 04: minimum elevation drop used for Conduit C2413
  WARNING 04: minimum elevation drop used for Conduit C2415
  WARNING 04: minimum elevation drop used for Conduit C2416
  WARNING 04: minimum elevation drop used for Conduit C2417
  WARNING 04: minimum elevation drop used for Conduit C2419
  WARNING 04: minimum elevation drop used for Conduit C2420
  WARNING 04: minimum elevation drop used for Conduit C2421
  WARNING 04: minimum elevation drop used for Conduit C2422
  WARNING 04: minimum elevation drop used for Conduit C2423
  WARNING 04: minimum elevation drop used for Conduit C2424
  WARNING 04: minimum elevation drop used for Conduit C2425
  WARNING 04: minimum elevation drop used for Conduit C2426
  WARNING 04: minimum elevation drop used for Conduit C2427
  WARNING 04: minimum elevation drop used for Conduit C2428
  WARNING 04: minimum elevation drop used for Conduit C2436
  WARNING 04: minimum elevation drop used for Conduit C2437
  WARNING 04: minimum elevation drop used for Conduit C2439
  WARNING 04: minimum elevation drop used for Conduit C2440
  WARNING 04: minimum elevation drop used for Conduit C2441
  WARNING 04: minimum elevation drop used for Conduit C2442
  WARNING 04: minimum elevation drop used for Conduit C2443
  WARNING 04: minimum elevation drop used for Conduit C2444
  WARNING 04: minimum elevation drop used for Conduit C2445
  WARNING 04: minimum elevation drop used for Conduit C2453
  WARNING 04: minimum elevation drop used for Conduit C2454
  WARNING 04: minimum elevation drop used for Conduit C2455
  WARNING 04: minimum elevation drop used for Conduit C2456
  WARNING 04: minimum elevation drop used for Conduit C2458
  WARNING 04: minimum elevation drop used for Conduit C2462
  WARNING 08: elevation drop exceeds length for Conduit C2464
  WARNING 04: minimum elevation drop used for Conduit C2465
  WARNING 04: minimum elevation drop used for Conduit C2466
  WARNING 04: minimum elevation drop used for Conduit C2467
  WARNING 04: minimum elevation drop used for Conduit C2468
  WARNING 04: minimum elevation drop used for Conduit C2470
  WARNING 04: minimum elevation drop used for Conduit C2471
  WARNING 04: minimum elevation drop used for Conduit C2472
  WARNING 04: minimum elevation drop used for Conduit C2473
  WARNING 04: minimum elevation drop used for Conduit C2481
  WARNING 04: minimum elevation drop used for Conduit C2483
  WARNING 04: minimum elevation drop used for Conduit C2484
  WARNING 04: minimum elevation drop used for Conduit C2485
  WARNING 04: minimum elevation drop used for Conduit C2491
  WARNING 04: minimum elevation drop used for Conduit C2492
  WARNING 04: minimum elevation drop used for Conduit C2493
  WARNING 04: minimum elevation drop used for Conduit C2494
  WARNING 04: minimum elevation drop used for Conduit C2500
  WARNING 04: minimum elevation drop used for Conduit C2502
  WARNING 04: minimum elevation drop used for Conduit C2503
  WARNING 04: minimum elevation drop used for Conduit C2504
  WARNING 04: minimum elevation drop used for Conduit C2505
  WARNING 04: minimum elevation drop used for Conduit C2506
  WARNING 04: minimum elevation drop used for Conduit C2508
  WARNING 04: minimum elevation drop used for Conduit C2509
  WARNING 04: minimum elevation drop used for Conduit C2511
  WARNING 04: minimum elevation drop used for Conduit C2514
  WARNING 04: minimum elevation drop used for Conduit C2515
  WARNING 04: minimum elevation drop used for Conduit C2520
  WARNING 04: minimum elevation drop used for Conduit C2522
  WARNING 04: minimum elevation drop used for Conduit C2528
  WARNING 04: minimum elevation drop used for Conduit C2529
  WARNING 04: minimum elevation drop used for Conduit C2531
  WARNING 04: minimum elevation drop used for Conduit C2532
  WARNING 04: minimum elevation drop used for Conduit C2534
  WARNING 04: minimum elevation drop used for Conduit C2535
  WARNING 04: minimum elevation drop used for Conduit C2536
  WARNING 04: minimum elevation drop used for Conduit C2537
  WARNING 04: minimum elevation drop used for Conduit C2540
  WARNING 04: minimum elevation drop used for Conduit C2541
  WARNING 04: minimum elevation drop used for Conduit C2542
  WARNING 04: minimum elevation drop used for Conduit C2543
  WARNING 04: minimum elevation drop used for Conduit C2548
  WARNING 04: minimum elevation drop used for Conduit C2549
  WARNING 04: minimum elevation drop used for Conduit C2550
  WARNING 08: elevation drop exceeds length for Conduit C260
  WARNING 08: elevation drop exceeds length for Conduit C261
  WARNING 08: elevation drop exceeds length for Conduit C262
  WARNING 08: elevation drop exceeds length for Conduit C2622
  WARNING 08: elevation drop exceeds length for Conduit C2624
  WARNING 08: elevation drop exceeds length for Conduit C2627
  WARNING 04: minimum elevation drop used for Conduit C2628
  WARNING 04: minimum elevation drop used for Conduit C2629
  WARNING 08: elevation drop exceeds length for Conduit C263
  WARNING 04: minimum elevation drop used for Conduit C2630
  WARNING 04: minimum elevation drop used for Conduit C2631
  WARNING 04: minimum elevation drop used for Conduit C2632
  WARNING 04: minimum elevation drop used for Conduit C2633
  WARNING 04: minimum elevation drop used for Conduit C2646
  WARNING 04: minimum elevation drop used for Conduit C2647
  WARNING 04: minimum elevation drop used for Conduit C2648
  WARNING 04: minimum elevation drop used for Conduit C2649
  WARNING 04: minimum elevation drop used for Conduit C2651
  WARNING 04: minimum elevation drop used for Conduit C2652
  WARNING 04: minimum elevation drop used for Conduit C2653
  WARNING 04: minimum elevation drop used for Conduit C2654
  WARNING 04: minimum elevation drop used for Conduit C2655
  WARNING 04: minimum elevation drop used for Conduit C2656
  WARNING 04: minimum elevation drop used for Conduit C2658
  WARNING 04: minimum elevation drop used for Conduit C2659
  WARNING 04: minimum elevation drop used for Conduit C2660
  WARNING 04: minimum elevation drop used for Conduit C2661
  WARNING 04: minimum elevation drop used for Conduit C2663
  WARNING 04: minimum elevation drop used for Conduit C2664
  WARNING 04: minimum elevation drop used for Conduit C2670
  WARNING 04: minimum elevation drop used for Conduit C2671
  WARNING 04: minimum elevation drop used for Conduit C2672
  WARNING 04: minimum elevation drop used for Conduit C2673
  WARNING 04: minimum elevation drop used for Conduit C2674
  WARNING 04: minimum elevation drop used for Conduit C2675
  WARNING 04: minimum elevation drop used for Conduit C2676
  WARNING 04: minimum elevation drop used for Conduit C2677
  WARNING 04: minimum elevation drop used for Conduit C2680
  WARNING 04: minimum elevation drop used for Conduit C2681
  WARNING 04: minimum elevation drop used for Conduit C2683
  WARNING 04: minimum elevation drop used for Conduit C2684
  WARNING 04: minimum elevation drop used for Conduit C2686
  WARNING 04: minimum elevation drop used for Conduit C2687
  WARNING 04: minimum elevation drop used for Conduit C2688
  WARNING 04: minimum elevation drop used for Conduit C2689
  WARNING 04: minimum elevation drop used for Conduit C2690
  WARNING 04: minimum elevation drop used for Conduit C2691
  WARNING 04: minimum elevation drop used for Conduit C2692
  WARNING 04: minimum elevation drop used for Conduit C2693
  WARNING 04: minimum elevation drop used for Conduit C2699
  WARNING 04: minimum elevation drop used for Conduit C2700
  WARNING 04: minimum elevation drop used for Conduit C2701
  WARNING 04: minimum elevation drop used for Conduit C2707
  WARNING 04: minimum elevation drop used for Conduit C2708
  WARNING 04: minimum elevation drop used for Conduit C2709
  WARNING 04: minimum elevation drop used for Conduit C2710
  WARNING 04: minimum elevation drop used for Conduit C2711
  WARNING 04: minimum elevation drop used for Conduit C2713
  WARNING 04: minimum elevation drop used for Conduit C2714
  WARNING 04: minimum elevation drop used for Conduit C2715
  WARNING 04: minimum elevation drop used for Conduit C2716
  WARNING 04: minimum elevation drop used for Conduit C2718
  WARNING 04: minimum elevation drop used for Conduit C2721
  WARNING 04: minimum elevation drop used for Conduit C2722
  WARNING 04: minimum elevation drop used for Conduit C2725
  WARNING 04: minimum elevation drop used for Conduit C2726
  WARNING 04: minimum elevation drop used for Conduit C2732
  WARNING 04: minimum elevation drop used for Conduit C2734
  WARNING 04: minimum elevation drop used for Conduit C2737
  WARNING 04: minimum elevation drop used for Conduit C2738
  WARNING 04: minimum elevation drop used for Conduit C2740
  WARNING 04: minimum elevation drop used for Conduit C2741
  WARNING 04: minimum elevation drop used for Conduit C2743
  WARNING 04: minimum elevation drop used for Conduit C2744
  WARNING 04: minimum elevation drop used for Conduit C2745
  WARNING 04: minimum elevation drop used for Conduit C2746
  WARNING 04: minimum elevation drop used for Conduit C2752
  WARNING 04: minimum elevation drop used for Conduit C2753
  WARNING 04: minimum elevation drop used for Conduit C2754
  WARNING 04: minimum elevation drop used for Conduit C2755
  WARNING 04: minimum elevation drop used for Conduit C2758
  WARNING 04: minimum elevation drop used for Conduit C2759
  WARNING 08: elevation drop exceeds length for Conduit C276
  WARNING 04: minimum elevation drop used for Conduit C2766
  WARNING 04: minimum elevation drop used for Conduit C2768
  WARNING 04: minimum elevation drop used for Conduit C2769
  WARNING 08: elevation drop exceeds length for Conduit C277
  WARNING 04: minimum elevation drop used for Conduit C2770
  WARNING 04: minimum elevation drop used for Conduit C2771
  WARNING 04: minimum elevation drop used for Conduit C2772
  WARNING 04: minimum elevation drop used for Conduit C2777
  WARNING 04: minimum elevation drop used for Conduit C2779
  WARNING 04: minimum elevation drop used for Conduit C2782
  WARNING 04: minimum elevation drop used for Conduit C2783
  WARNING 04: minimum elevation drop used for Conduit C2784
  WARNING 04: minimum elevation drop used for Conduit C2785
  WARNING 04: minimum elevation drop used for Conduit C2786
  WARNING 04: minimum elevation drop used for Conduit C2787
  WARNING 04: minimum elevation drop used for Conduit C2788
  WARNING 04: minimum elevation drop used for Conduit C2792
  WARNING 04: minimum elevation drop used for Conduit C2793
  WARNING 04: minimum elevation drop used for Conduit C2794
  WARNING 04: minimum elevation drop used for Conduit C2795
  WARNING 04: minimum elevation drop used for Conduit C2796
  WARNING 04: minimum elevation drop used for Conduit C2797
  WARNING 04: minimum elevation drop used for Conduit C2798
  WARNING 04: minimum elevation drop used for Conduit C2801
  WARNING 04: minimum elevation drop used for Conduit C2802
  WARNING 04: minimum elevation drop used for Conduit C2803
  WARNING 04: minimum elevation drop used for Conduit C2804
  WARNING 04: minimum elevation drop used for Conduit C2805
  WARNING 04: minimum elevation drop used for Conduit C2807
  WARNING 04: minimum elevation drop used for Conduit C2808
  WARNING 04: minimum elevation drop used for Conduit C2814
  WARNING 04: minimum elevation drop used for Conduit C2815
  WARNING 04: minimum elevation drop used for Conduit C2816
  WARNING 04: minimum elevation drop used for Conduit C2819
  WARNING 04: minimum elevation drop used for Conduit C2820
  WARNING 04: minimum elevation drop used for Conduit C2821
  WARNING 04: minimum elevation drop used for Conduit C2824
  WARNING 04: minimum elevation drop used for Conduit C2833
  WARNING 04: minimum elevation drop used for Conduit C2834
  WARNING 04: minimum elevation drop used for Conduit C2836
  WARNING 04: minimum elevation drop used for Conduit C2837
  WARNING 04: minimum elevation drop used for Conduit C2838
  WARNING 04: minimum elevation drop used for Conduit C2839
  WARNING 04: minimum elevation drop used for Conduit C2840
  WARNING 04: minimum elevation drop used for Conduit C2841
  WARNING 04: minimum elevation drop used for Conduit C2847
  WARNING 04: minimum elevation drop used for Conduit C2849
  WARNING 04: minimum elevation drop used for Conduit C2854
  WARNING 04: minimum elevation drop used for Conduit C2855
  WARNING 04: minimum elevation drop used for Conduit C2856
  WARNING 04: minimum elevation drop used for Conduit C2857
  WARNING 04: minimum elevation drop used for Conduit C2859
  WARNING 04: minimum elevation drop used for Conduit C2860
  WARNING 04: minimum elevation drop used for Conduit C2861
  WARNING 04: minimum elevation drop used for Conduit C2866
  WARNING 04: minimum elevation drop used for Conduit C2867
  WARNING 04: minimum elevation drop used for Conduit C2874
  WARNING 04: minimum elevation drop used for Conduit C2875
  WARNING 04: minimum elevation drop used for Conduit C2876
  WARNING 04: minimum elevation drop used for Conduit C2877
  WARNING 04: minimum elevation drop used for Conduit C2878
  WARNING 04: minimum elevation drop used for Conduit C2879
  WARNING 04: minimum elevation drop used for Conduit C2880
  WARNING 04: minimum elevation drop used for Conduit C2883
  WARNING 04: minimum elevation drop used for Conduit C2884
  WARNING 04: minimum elevation drop used for Conduit C2885
  WARNING 04: minimum elevation drop used for Conduit C2886
  WARNING 04: minimum elevation drop used for Conduit C2888
  WARNING 04: minimum elevation drop used for Conduit C2889
  WARNING 08: elevation drop exceeds length for Conduit C289
  WARNING 04: minimum elevation drop used for Conduit C2890
  WARNING 04: minimum elevation drop used for Conduit C2894
  WARNING 04: minimum elevation drop used for Conduit C2895
  WARNING 08: elevation drop exceeds length for Conduit C290
  WARNING 04: minimum elevation drop used for Conduit C2907
  WARNING 04: minimum elevation drop used for Conduit C2908
  WARNING 04: minimum elevation drop used for Conduit C2909
  WARNING 04: minimum elevation drop used for Conduit C2910
  WARNING 04: minimum elevation drop used for Conduit C2911
  WARNING 04: minimum elevation drop used for Conduit C2912
  WARNING 04: minimum elevation drop used for Conduit C2913
  WARNING 04: minimum elevation drop used for Conduit C2914
  WARNING 04: minimum elevation drop used for Conduit C2915
  WARNING 04: minimum elevation drop used for Conduit C2916
  WARNING 04: minimum elevation drop used for Conduit C2917
  WARNING 04: minimum elevation drop used for Conduit C2920
  WARNING 04: minimum elevation drop used for Conduit C2921
  WARNING 04: minimum elevation drop used for Conduit C2922
  WARNING 04: minimum elevation drop used for Conduit C2934
  WARNING 04: minimum elevation drop used for Conduit C2936
  WARNING 04: minimum elevation drop used for Conduit C2937
  WARNING 04: minimum elevation drop used for Conduit C2938
  WARNING 04: minimum elevation drop used for Conduit C2939
  WARNING 04: minimum elevation drop used for Conduit C2940
  WARNING 04: minimum elevation drop used for Conduit C2941
  WARNING 04: minimum elevation drop used for Conduit C2942
  WARNING 04: minimum elevation drop used for Conduit C2943
  WARNING 04: minimum elevation drop used for Conduit C2944
  WARNING 04: minimum elevation drop used for Conduit C2945
  WARNING 04: minimum elevation drop used for Conduit C2950
  WARNING 04: minimum elevation drop used for Conduit C2951
  WARNING 04: minimum elevation drop used for Conduit C2952
  WARNING 04: minimum elevation drop used for Conduit C2954
  WARNING 04: minimum elevation drop used for Conduit C2956
  WARNING 04: minimum elevation drop used for Conduit C2957
  WARNING 04: minimum elevation drop used for Conduit C2958
  WARNING 04: minimum elevation drop used for Conduit C2959
  WARNING 04: minimum elevation drop used for Conduit C2960
  WARNING 04: minimum elevation drop used for Conduit C2962
  WARNING 04: minimum elevation drop used for Conduit C2963
  WARNING 04: minimum elevation drop used for Conduit C2964
  WARNING 04: minimum elevation drop used for Conduit C2967
  WARNING 04: minimum elevation drop used for Conduit C2968
  WARNING 04: minimum elevation drop used for Conduit C2969
  WARNING 04: minimum elevation drop used for Conduit C2970
  WARNING 04: minimum elevation drop used for Conduit C2974
  WARNING 04: minimum elevation drop used for Conduit C2976
  WARNING 04: minimum elevation drop used for Conduit C2977
  WARNING 04: minimum elevation drop used for Conduit C2979
  WARNING 04: minimum elevation drop used for Conduit C2980
  WARNING 04: minimum elevation drop used for Conduit C2981
  WARNING 04: minimum elevation drop used for Conduit C2982
  WARNING 04: minimum elevation drop used for Conduit C2983
  WARNING 04: minimum elevation drop used for Conduit C2984
  WARNING 04: minimum elevation drop used for Conduit C2985
  WARNING 08: elevation drop exceeds length for Conduit C2989
  WARNING 08: elevation drop exceeds length for Conduit C2990
  WARNING 04: minimum elevation drop used for Conduit C3050
  WARNING 04: minimum elevation drop used for Conduit C3051
  WARNING 04: minimum elevation drop used for Conduit C3052
  WARNING 04: minimum elevation drop used for Conduit C3053
  WARNING 04: minimum elevation drop used for Conduit C3057
  WARNING 04: minimum elevation drop used for Conduit C3058
  WARNING 04: minimum elevation drop used for Conduit C3061
  WARNING 04: minimum elevation drop used for Conduit C3062
  WARNING 04: minimum elevation drop used for Conduit C3063
  WARNING 04: minimum elevation drop used for Conduit C3064
  WARNING 04: minimum elevation drop used for Conduit C3065
  WARNING 04: minimum elevation drop used for Conduit C3066
  WARNING 04: minimum elevation drop used for Conduit C3067
  WARNING 04: minimum elevation drop used for Conduit C3068
  WARNING 04: minimum elevation drop used for Conduit C3069
  WARNING 04: minimum elevation drop used for Conduit C3070
  WARNING 04: minimum elevation drop used for Conduit C3071
  WARNING 04: minimum elevation drop used for Conduit C3072
  WARNING 04: minimum elevation drop used for Conduit C3073
  WARNING 04: minimum elevation drop used for Conduit C3074
  WARNING 04: minimum elevation drop used for Conduit C3076
  WARNING 04: minimum elevation drop used for Conduit C3077
  WARNING 04: minimum elevation drop used for Conduit C3078
  WARNING 04: minimum elevation drop used for Conduit C3079
  WARNING 04: minimum elevation drop used for Conduit C3080
  WARNING 04: minimum elevation drop used for Conduit C3081
  WARNING 04: minimum elevation drop used for Conduit C3083
  WARNING 04: minimum elevation drop used for Conduit C3088
  WARNING 04: minimum elevation drop used for Conduit C3094
  WARNING 04: minimum elevation drop used for Conduit C3095
  WARNING 04: minimum elevation drop used for Conduit C3098
  WARNING 04: minimum elevation drop used for Conduit C3117
  WARNING 04: minimum elevation drop used for Conduit C3118
  WARNING 04: minimum elevation drop used for Conduit C3119
  WARNING 04: minimum elevation drop used for Conduit C3120
  WARNING 04: minimum elevation drop used for Conduit C3121
  WARNING 04: minimum elevation drop used for Conduit C3122
  WARNING 04: minimum elevation drop used for Conduit C3123
  WARNING 04: minimum elevation drop used for Conduit C3125
  WARNING 04: minimum elevation drop used for Conduit C3126
  WARNING 04: minimum elevation drop used for Conduit C3127
  WARNING 04: minimum elevation drop used for Conduit C3129
  WARNING 04: minimum elevation drop used for Conduit C3131
  WARNING 04: minimum elevation drop used for Conduit C3133
  WARNING 04: minimum elevation drop used for Conduit C3134
  WARNING 04: minimum elevation drop used for Conduit C3135
  WARNING 04: minimum elevation drop used for Conduit C3136
  WARNING 04: minimum elevation drop used for Conduit C3138
  WARNING 04: minimum elevation drop used for Conduit C3139
  WARNING 04: minimum elevation drop used for Conduit C3142
  WARNING 04: minimum elevation drop used for Conduit C3143
  WARNING 04: minimum elevation drop used for Conduit C3144
  WARNING 04: minimum elevation drop used for Conduit C3149
  WARNING 04: minimum elevation drop used for Conduit C3150
  WARNING 04: minimum elevation drop used for Conduit C3151
  WARNING 04: minimum elevation drop used for Conduit C3166
  WARNING 04: minimum elevation drop used for Conduit C3169
  WARNING 04: minimum elevation drop used for Conduit C3172
  WARNING 04: minimum elevation drop used for Conduit C3173
  WARNING 04: minimum elevation drop used for Conduit C3177
  WARNING 04: minimum elevation drop used for Conduit C3181
  WARNING 04: minimum elevation drop used for Conduit C3182
  WARNING 04: minimum elevation drop used for Conduit C3183
  WARNING 04: minimum elevation drop used for Conduit C3184
  WARNING 04: minimum elevation drop used for Conduit C3185
  WARNING 04: minimum elevation drop used for Conduit C3186
  WARNING 04: minimum elevation drop used for Conduit C3187
  WARNING 04: minimum elevation drop used for Conduit C3188
  WARNING 04: minimum elevation drop used for Conduit C3189
  WARNING 04: minimum elevation drop used for Conduit C3190
  WARNING 04: minimum elevation drop used for Conduit C3193
  WARNING 04: minimum elevation drop used for Conduit C3195
  WARNING 04: minimum elevation drop used for Conduit C3196
  WARNING 04: minimum elevation drop used for Conduit C3197
  WARNING 04: minimum elevation drop used for Conduit C3199
  WARNING 04: minimum elevation drop used for Conduit C3201
  WARNING 04: minimum elevation drop used for Conduit C3204
  WARNING 04: minimum elevation drop used for Conduit C3205
  WARNING 04: minimum elevation drop used for Conduit C3208
  WARNING 04: minimum elevation drop used for Conduit C3209
  WARNING 04: minimum elevation drop used for Conduit C3211
  WARNING 04: minimum elevation drop used for Conduit C3213
  WARNING 04: minimum elevation drop used for Conduit C3215
  WARNING 04: minimum elevation drop used for Conduit C3216
  WARNING 04: minimum elevation drop used for Conduit C3225
  WARNING 04: minimum elevation drop used for Conduit C3226
  WARNING 04: minimum elevation drop used for Conduit C3227
  WARNING 04: minimum elevation drop used for Conduit C3230
  WARNING 04: minimum elevation drop used for Conduit C3245
  WARNING 04: minimum elevation drop used for Conduit C3250
  WARNING 04: minimum elevation drop used for Conduit C3253
  WARNING 04: minimum elevation drop used for Conduit C3256
  WARNING 04: minimum elevation drop used for Conduit C3260
  WARNING 04: minimum elevation drop used for Conduit C3261
  WARNING 04: minimum elevation drop used for Conduit C3262
  WARNING 04: minimum elevation drop used for Conduit C3263
  WARNING 04: minimum elevation drop used for Conduit C3264
  WARNING 04: minimum elevation drop used for Conduit C3265
  WARNING 04: minimum elevation drop used for Conduit C3266
  WARNING 04: minimum elevation drop used for Conduit C3267
  WARNING 04: minimum elevation drop used for Conduit C3268
  WARNING 04: minimum elevation drop used for Conduit C3269
  WARNING 04: minimum elevation drop used for Conduit C3270
  WARNING 04: minimum elevation drop used for Conduit C3271
  WARNING 04: minimum elevation drop used for Conduit C3273
  WARNING 04: minimum elevation drop used for Conduit C3274
  WARNING 04: minimum elevation drop used for Conduit C3277
  WARNING 04: minimum elevation drop used for Conduit C3287
  WARNING 04: minimum elevation drop used for Conduit C3305
  WARNING 04: minimum elevation drop used for Conduit C3306
  WARNING 04: minimum elevation drop used for Conduit C3307
  WARNING 04: minimum elevation drop used for Conduit C3308
  WARNING 04: minimum elevation drop used for Conduit C3309
  WARNING 04: minimum elevation drop used for Conduit C3310
  WARNING 04: minimum elevation drop used for Conduit C3311
  WARNING 04: minimum elevation drop used for Conduit C3312
  WARNING 04: minimum elevation drop used for Conduit C3313
  WARNING 04: minimum elevation drop used for Conduit C3314
  WARNING 04: minimum elevation drop used for Conduit C3316
  WARNING 04: minimum elevation drop used for Conduit C3330
  WARNING 04: minimum elevation drop used for Conduit C3331
  WARNING 04: minimum elevation drop used for Conduit C3332
  WARNING 04: minimum elevation drop used for Conduit C3333
  WARNING 04: minimum elevation drop used for Conduit C3337
  WARNING 04: minimum elevation drop used for Conduit C3338
  WARNING 04: minimum elevation drop used for Conduit C3340
  WARNING 04: minimum elevation drop used for Conduit C3341
  WARNING 04: minimum elevation drop used for Conduit C3343
  WARNING 04: minimum elevation drop used for Conduit C3344
  WARNING 04: minimum elevation drop used for Conduit C3345
  WARNING 04: minimum elevation drop used for Conduit C3346
  WARNING 04: minimum elevation drop used for Conduit C3347
  WARNING 04: minimum elevation drop used for Conduit C3351
  WARNING 04: minimum elevation drop used for Conduit C3352
  WARNING 04: minimum elevation drop used for Conduit C3353
  WARNING 04: minimum elevation drop used for Conduit C3354
  WARNING 04: minimum elevation drop used for Conduit C3355
  WARNING 04: minimum elevation drop used for Conduit C3356
  WARNING 04: minimum elevation drop used for Conduit C3357
  WARNING 04: minimum elevation drop used for Conduit C3358
  WARNING 04: minimum elevation drop used for Conduit C3359
  WARNING 04: minimum elevation drop used for Conduit C3372
  WARNING 04: minimum elevation drop used for Conduit C3373
  WARNING 04: minimum elevation drop used for Conduit C3374
  WARNING 04: minimum elevation drop used for Conduit C3375
  WARNING 04: minimum elevation drop used for Conduit C3376
  WARNING 04: minimum elevation drop used for Conduit C3377
  WARNING 04: minimum elevation drop used for Conduit C3378
  WARNING 04: minimum elevation drop used for Conduit C3379
  WARNING 04: minimum elevation drop used for Conduit C3380
  WARNING 04: minimum elevation drop used for Conduit C3382
  WARNING 04: minimum elevation drop used for Conduit C3385
  WARNING 04: minimum elevation drop used for Conduit C3386
  WARNING 04: minimum elevation drop used for Conduit C3387
  WARNING 04: minimum elevation drop used for Conduit C3389
  WARNING 04: minimum elevation drop used for Conduit C3391
  WARNING 04: minimum elevation drop used for Conduit C3394
  WARNING 04: minimum elevation drop used for Conduit C3395
  WARNING 04: minimum elevation drop used for Conduit C3398
  WARNING 04: minimum elevation drop used for Conduit C3399
  WARNING 04: minimum elevation drop used for Conduit C3401
  WARNING 04: minimum elevation drop used for Conduit C3403
  WARNING 04: minimum elevation drop used for Conduit C3406
  WARNING 04: minimum elevation drop used for Conduit C3407
  WARNING 04: minimum elevation drop used for Conduit C3408
  WARNING 04: minimum elevation drop used for Conduit C3409
  WARNING 04: minimum elevation drop used for Conduit C3412
  WARNING 04: minimum elevation drop used for Conduit C3415
  WARNING 04: minimum elevation drop used for Conduit C3416
  WARNING 04: minimum elevation drop used for Conduit C3418
  WARNING 04: minimum elevation drop used for Conduit C3420
  WARNING 04: minimum elevation drop used for Conduit C3422
  WARNING 04: minimum elevation drop used for Conduit C3425
  WARNING 04: minimum elevation drop used for Conduit C3426
  WARNING 04: minimum elevation drop used for Conduit C3427
  WARNING 04: minimum elevation drop used for Conduit C3435
  WARNING 04: minimum elevation drop used for Conduit C3436
  WARNING 04: minimum elevation drop used for Conduit C3437
  WARNING 04: minimum elevation drop used for Conduit C3438
  WARNING 04: minimum elevation drop used for Conduit C3439
  WARNING 04: minimum elevation drop used for Conduit C3440
  WARNING 04: minimum elevation drop used for Conduit C3441
  WARNING 04: minimum elevation drop used for Conduit C3442
  WARNING 04: minimum elevation drop used for Conduit C3443
  WARNING 04: minimum elevation drop used for Conduit C3444
  WARNING 04: minimum elevation drop used for Conduit C3455
  WARNING 08: elevation drop exceeds length for Conduit C3526
  WARNING 08: elevation drop exceeds length for Conduit C3529
  WARNING 04: minimum elevation drop used for Conduit C3537
  WARNING 04: minimum elevation drop used for Conduit C3538
  WARNING 04: minimum elevation drop used for Conduit C3539
  WARNING 04: minimum elevation drop used for Conduit C3540
  WARNING 04: minimum elevation drop used for Conduit C3541
  WARNING 04: minimum elevation drop used for Conduit C3542
  WARNING 04: minimum elevation drop used for Conduit C3543
  WARNING 04: minimum elevation drop used for Conduit C3544
  WARNING 04: minimum elevation drop used for Conduit C3548
  WARNING 04: minimum elevation drop used for Conduit C3551
  WARNING 04: minimum elevation drop used for Conduit C3552
  WARNING 04: minimum elevation drop used for Conduit C3553
  WARNING 04: minimum elevation drop used for Conduit C3555
  WARNING 04: minimum elevation drop used for Conduit C3565
  WARNING 04: minimum elevation drop used for Conduit C3571
  WARNING 04: minimum elevation drop used for Conduit C3572
  WARNING 04: minimum elevation drop used for Conduit C3573
  WARNING 04: minimum elevation drop used for Conduit C3574
  WARNING 04: minimum elevation drop used for Conduit C3575
  WARNING 04: minimum elevation drop used for Conduit C3576
  WARNING 04: minimum elevation drop used for Conduit C3578
  WARNING 04: minimum elevation drop used for Conduit C3579
  WARNING 04: minimum elevation drop used for Conduit C3580
  WARNING 04: minimum elevation drop used for Conduit C3582
  WARNING 04: minimum elevation drop used for Conduit C3584
  WARNING 04: minimum elevation drop used for Conduit C3594
  WARNING 04: minimum elevation drop used for Conduit C3610
  WARNING 04: minimum elevation drop used for Conduit C3628
  WARNING 04: minimum elevation drop used for Conduit C3630
  WARNING 04: minimum elevation drop used for Conduit C3633
  WARNING 04: minimum elevation drop used for Conduit C3634
  WARNING 04: minimum elevation drop used for Conduit C3635
  WARNING 04: minimum elevation drop used for Conduit C3636
  WARNING 04: minimum elevation drop used for Conduit C3640
  WARNING 04: minimum elevation drop used for Conduit C3641
  WARNING 04: minimum elevation drop used for Conduit C3642
  WARNING 04: minimum elevation drop used for Conduit C3643
  WARNING 04: minimum elevation drop used for Conduit C3644
  WARNING 04: minimum elevation drop used for Conduit C3645
  WARNING 04: minimum elevation drop used for Conduit C3646
  WARNING 04: minimum elevation drop used for Conduit C3647
  WARNING 04: minimum elevation drop used for Conduit C3648
  WARNING 04: minimum elevation drop used for Conduit C3649
  WARNING 04: minimum elevation drop used for Conduit C3650
  WARNING 04: minimum elevation drop used for Conduit C3651
  WARNING 04: minimum elevation drop used for Conduit C3652
  WARNING 04: minimum elevation drop used for Conduit C3660
  WARNING 04: minimum elevation drop used for Conduit C3672
  WARNING 04: minimum elevation drop used for Conduit C3681
  WARNING 04: minimum elevation drop used for Conduit C3693
  WARNING 04: minimum elevation drop used for Conduit C3721
  WARNING 04: minimum elevation drop used for Conduit C3727
  WARNING 04: minimum elevation drop used for Conduit C3728
  WARNING 04: minimum elevation drop used for Conduit C3729
  WARNING 04: minimum elevation drop used for Conduit C3730
  WARNING 04: minimum elevation drop used for Conduit C3731
  WARNING 04: minimum elevation drop used for Conduit C3732
  WARNING 04: minimum elevation drop used for Conduit C3733
  WARNING 04: minimum elevation drop used for Conduit C3734
  WARNING 04: minimum elevation drop used for Conduit C3735
  WARNING 04: minimum elevation drop used for Conduit C3736
  WARNING 04: minimum elevation drop used for Conduit C3741
  WARNING 04: minimum elevation drop used for Conduit C3742
  WARNING 04: minimum elevation drop used for Conduit C3743
  WARNING 04: minimum elevation drop used for Conduit C3745
  WARNING 04: minimum elevation drop used for Conduit C3747
  WARNING 04: minimum elevation drop used for Conduit C3750
  WARNING 04: minimum elevation drop used for Conduit C3751
  WARNING 04: minimum elevation drop used for Conduit C3752
  WARNING 04: minimum elevation drop used for Conduit C3754
  WARNING 04: minimum elevation drop used for Conduit C3756
  WARNING 04: minimum elevation drop used for Conduit C3759
  WARNING 04: minimum elevation drop used for Conduit C3762
  WARNING 04: minimum elevation drop used for Conduit C3763
  WARNING 04: minimum elevation drop used for Conduit C3764
  WARNING 04: minimum elevation drop used for Conduit C3766
  WARNING 04: minimum elevation drop used for Conduit C3768
  WARNING 04: minimum elevation drop used for Conduit C3770
  WARNING 04: minimum elevation drop used for Conduit C3771
  WARNING 04: minimum elevation drop used for Conduit C3773
  WARNING 04: minimum elevation drop used for Conduit C3775
  WARNING 04: minimum elevation drop used for Conduit C3777
  WARNING 04: minimum elevation drop used for Conduit C3780
  WARNING 04: minimum elevation drop used for Conduit C3783
  WARNING 04: minimum elevation drop used for Conduit C3784
  WARNING 04: minimum elevation drop used for Conduit C3785
  WARNING 04: minimum elevation drop used for Conduit C3787
  WARNING 04: minimum elevation drop used for Conduit C3789
  WARNING 04: minimum elevation drop used for Conduit C3791
  WARNING 04: minimum elevation drop used for Conduit C3792
  WARNING 04: minimum elevation drop used for Conduit C3793
  WARNING 04: minimum elevation drop used for Conduit C3794
  WARNING 04: minimum elevation drop used for Conduit C3795
  WARNING 04: minimum elevation drop used for Conduit C3796
  WARNING 04: minimum elevation drop used for Conduit C3797
  WARNING 04: minimum elevation drop used for Conduit C3805
  WARNING 04: minimum elevation drop used for Conduit C3806
  WARNING 04: minimum elevation drop used for Conduit C3807
  WARNING 04: minimum elevation drop used for Conduit C3815
  WARNING 04: minimum elevation drop used for Conduit C3817
  WARNING 04: minimum elevation drop used for Conduit C3818
  WARNING 04: minimum elevation drop used for Conduit C3832
  WARNING 04: minimum elevation drop used for Conduit C3834
  WARNING 04: minimum elevation drop used for Conduit C3843
  WARNING 04: minimum elevation drop used for Conduit C3855
  WARNING 04: minimum elevation drop used for Conduit C3864
  WARNING 04: minimum elevation drop used for Conduit C3876
  WARNING 04: minimum elevation drop used for Conduit C3885
  WARNING 04: minimum elevation drop used for Conduit C3888
  WARNING 04: minimum elevation drop used for Conduit C3930
  WARNING 04: minimum elevation drop used for Conduit C3941
  WARNING 04: minimum elevation drop used for Conduit C3949
  WARNING 04: minimum elevation drop used for Conduit C3958
  WARNING 04: minimum elevation drop used for Conduit C3970
  WARNING 04: minimum elevation drop used for Conduit C3979
  WARNING 04: minimum elevation drop used for Conduit C3991
  WARNING 04: minimum elevation drop used for Conduit C3997
  WARNING 04: minimum elevation drop used for Conduit C4000
  WARNING 04: minimum elevation drop used for Conduit C4027
  WARNING 04: minimum elevation drop used for Conduit C4029
  WARNING 04: minimum elevation drop used for Conduit C4107
  WARNING 04: minimum elevation drop used for Conduit C4109
  WARNING 04: minimum elevation drop used for Conduit C4110
  WARNING 04: minimum elevation drop used for Conduit C4111
  WARNING 04: minimum elevation drop used for Conduit C4112
  WARNING 04: minimum elevation drop used for Conduit C4113
  WARNING 04: minimum elevation drop used for Conduit C4114
  WARNING 04: minimum elevation drop used for Conduit C4115
  WARNING 04: minimum elevation drop used for Conduit C4116
  WARNING 04: minimum elevation drop used for Conduit C4117
  WARNING 04: minimum elevation drop used for Conduit C4118
  WARNING 04: minimum elevation drop used for Conduit C4119
  WARNING 04: minimum elevation drop used for Conduit C4120
  WARNING 04: minimum elevation drop used for Conduit C4121
  WARNING 04: minimum elevation drop used for Conduit C4122
  WARNING 04: minimum elevation drop used for Conduit C4123
  WARNING 04: minimum elevation drop used for Conduit C4125
  WARNING 04: minimum elevation drop used for Conduit C4128
  WARNING 04: minimum elevation drop used for Conduit C4130
  WARNING 04: minimum elevation drop used for Conduit C4145
  WARNING 04: minimum elevation drop used for Conduit C4147
  WARNING 04: minimum elevation drop used for Conduit C4149
  WARNING 04: minimum elevation drop used for Conduit C4152
  WARNING 04: minimum elevation drop used for Conduit C4153
  WARNING 04: minimum elevation drop used for Conduit C4155
  WARNING 04: minimum elevation drop used for Conduit C4156
  WARNING 04: minimum elevation drop used for Conduit C4157
  WARNING 04: minimum elevation drop used for Conduit C4159
  WARNING 04: minimum elevation drop used for Conduit C4161
  WARNING 04: minimum elevation drop used for Conduit C4164
  WARNING 04: minimum elevation drop used for Conduit C4165
  WARNING 04: minimum elevation drop used for Conduit C4167
  WARNING 04: minimum elevation drop used for Conduit C4170
  WARNING 04: minimum elevation drop used for Conduit C4171
  WARNING 04: minimum elevation drop used for Conduit C4174
  WARNING 04: minimum elevation drop used for Conduit C4175
  WARNING 04: minimum elevation drop used for Conduit C4178
  WARNING 04: minimum elevation drop used for Conduit C4179
  WARNING 04: minimum elevation drop used for Conduit C4180
  WARNING 04: minimum elevation drop used for Conduit C4181
  WARNING 04: minimum elevation drop used for Conduit C4182
  WARNING 04: minimum elevation drop used for Conduit C4185
  WARNING 04: minimum elevation drop used for Conduit C4188
  WARNING 04: minimum elevation drop used for Conduit C4190
  WARNING 04: minimum elevation drop used for Conduit C4191
  WARNING 04: minimum elevation drop used for Conduit C4193
  WARNING 04: minimum elevation drop used for Conduit C4195
  WARNING 04: minimum elevation drop used for Conduit C4198
  WARNING 04: minimum elevation drop used for Conduit C4199
  WARNING 04: minimum elevation drop used for Conduit C4201
  WARNING 04: minimum elevation drop used for Conduit C4203
  WARNING 04: minimum elevation drop used for Conduit C4205
  WARNING 04: minimum elevation drop used for Conduit C4207
  WARNING 04: minimum elevation drop used for Conduit C4209
  WARNING 04: minimum elevation drop used for Conduit C4210
  WARNING 04: minimum elevation drop used for Conduit C4212
  WARNING 04: minimum elevation drop used for Conduit C4214
  WARNING 04: minimum elevation drop used for Conduit C4215
  WARNING 04: minimum elevation drop used for Conduit C4216
  WARNING 04: minimum elevation drop used for Conduit C4217
  WARNING 04: minimum elevation drop used for Conduit C4218
  WARNING 04: minimum elevation drop used for Conduit C4219
  WARNING 04: minimum elevation drop used for Conduit C4222
  WARNING 04: minimum elevation drop used for Conduit C4235
  WARNING 04: minimum elevation drop used for Conduit C4248
  WARNING 04: minimum elevation drop used for Conduit C4254
  WARNING 04: minimum elevation drop used for Conduit C4267
  WARNING 04: minimum elevation drop used for Conduit C4277
  WARNING 04: minimum elevation drop used for Conduit C4286
  WARNING 04: minimum elevation drop used for Conduit C4298
  WARNING 04: minimum elevation drop used for Conduit C4304
  WARNING 04: minimum elevation drop used for Conduit C4307
  WARNING 04: minimum elevation drop used for Conduit C4335
  WARNING 04: minimum elevation drop used for Conduit C4336
  WARNING 04: minimum elevation drop used for Conduit C4338
  WARNING 04: minimum elevation drop used for Conduit C4340
  WARNING 04: minimum elevation drop used for Conduit C4349
  WARNING 04: minimum elevation drop used for Conduit C4350
  WARNING 04: minimum elevation drop used for Conduit C4355
  WARNING 04: minimum elevation drop used for Conduit C4356
  WARNING 04: minimum elevation drop used for Conduit C4359
  WARNING 04: minimum elevation drop used for Conduit C4362
  WARNING 04: minimum elevation drop used for Conduit C4364
  WARNING 04: minimum elevation drop used for Conduit C4365
  WARNING 04: minimum elevation drop used for Conduit C4367
  WARNING 04: minimum elevation drop used for Conduit C4368
  WARNING 04: minimum elevation drop used for Conduit C4370
  WARNING 04: minimum elevation drop used for Conduit C4371
  WARNING 04: minimum elevation drop used for Conduit C4374
  WARNING 04: minimum elevation drop used for Conduit C4377
  WARNING 04: minimum elevation drop used for Conduit C4378
  WARNING 04: minimum elevation drop used for Conduit C4380
  WARNING 04: minimum elevation drop used for Conduit C4383
  WARNING 04: minimum elevation drop used for Conduit C4385
  WARNING 04: minimum elevation drop used for Conduit C4386
  WARNING 04: minimum elevation drop used for Conduit C4387
  WARNING 04: minimum elevation drop used for Conduit C4388
  WARNING 04: minimum elevation drop used for Conduit C4389
  WARNING 04: minimum elevation drop used for Conduit C4390
  WARNING 04: minimum elevation drop used for Conduit C4391
  WARNING 04: minimum elevation drop used for Conduit C4394
  WARNING 04: minimum elevation drop used for Conduit C4395
  WARNING 04: minimum elevation drop used for Conduit C4397
  WARNING 04: minimum elevation drop used for Conduit C4400
  WARNING 04: minimum elevation drop used for Conduit C4402
  WARNING 04: minimum elevation drop used for Conduit C4403
  WARNING 04: minimum elevation drop used for Conduit C4405
  WARNING 04: minimum elevation drop used for Conduit C4407
  WARNING 04: minimum elevation drop used for Conduit C4409
  WARNING 04: minimum elevation drop used for Conduit C4410
  WARNING 04: minimum elevation drop used for Conduit C4412
  WARNING 04: minimum elevation drop used for Conduit C4414
  WARNING 04: minimum elevation drop used for Conduit C4415
  WARNING 04: minimum elevation drop used for Conduit C4418
  WARNING 04: minimum elevation drop used for Conduit C4421
  WARNING 04: minimum elevation drop used for Conduit C4422
  WARNING 04: minimum elevation drop used for Conduit C4424
  WARNING 04: minimum elevation drop used for Conduit C4425
  WARNING 04: minimum elevation drop used for Conduit C4428
  WARNING 04: minimum elevation drop used for Conduit C4436
  WARNING 04: minimum elevation drop used for Conduit C4438
  WARNING 04: minimum elevation drop used for Conduit C4442
  WARNING 04: minimum elevation drop used for Conduit C4452
  WARNING 04: minimum elevation drop used for Conduit C4458
  WARNING 04: minimum elevation drop used for Conduit C4467
  WARNING 04: minimum elevation drop used for Conduit C4481
  WARNING 04: minimum elevation drop used for Conduit C4490
  WARNING 04: minimum elevation drop used for Conduit C4502
  WARNING 04: minimum elevation drop used for Conduit C4508
  WARNING 04: minimum elevation drop used for Conduit C4511
  WARNING 04: minimum elevation drop used for Conduit C4523
  WARNING 04: minimum elevation drop used for Conduit C4567
  WARNING 04: minimum elevation drop used for Conduit C4586
  WARNING 04: minimum elevation drop used for Conduit C4592
  WARNING 04: minimum elevation drop used for Conduit C4603
  WARNING 04: minimum elevation drop used for Conduit C4613
  WARNING 04: minimum elevation drop used for Conduit C4619
  WARNING 04: minimum elevation drop used for Conduit C4628
  WARNING 04: minimum elevation drop used for Conduit C4640
  WARNING 04: minimum elevation drop used for Conduit C4649
  WARNING 04: minimum elevation drop used for Conduit C4652
  WARNING 04: minimum elevation drop used for Conduit C4661
  WARNING 04: minimum elevation drop used for Conduit C4681
  WARNING 04: minimum elevation drop used for Conduit C4683
  WARNING 04: minimum elevation drop used for Conduit C4684
  WARNING 04: minimum elevation drop used for Conduit C4689
  WARNING 04: minimum elevation drop used for Conduit C4690
  WARNING 04: minimum elevation drop used for Conduit C4691
  WARNING 04: minimum elevation drop used for Conduit C4693
  WARNING 04: minimum elevation drop used for Conduit C4770
  WARNING 04: minimum elevation drop used for Conduit C4771
  WARNING 04: minimum elevation drop used for Conduit C4772
  WARNING 04: minimum elevation drop used for Conduit C4774
  WARNING 04: minimum elevation drop used for Conduit C4777
  WARNING 04: minimum elevation drop used for Conduit C4780
  WARNING 04: minimum elevation drop used for Conduit C4817
  WARNING 04: minimum elevation drop used for Conduit C4819
  WARNING 04: minimum elevation drop used for Conduit C4821
  WARNING 04: minimum elevation drop used for Conduit C4824
  WARNING 04: minimum elevation drop used for Conduit C4826
  WARNING 04: minimum elevation drop used for Conduit C4827
  WARNING 04: minimum elevation drop used for Conduit C4828
  WARNING 04: minimum elevation drop used for Conduit C4829
  WARNING 04: minimum elevation drop used for Conduit C4831
  WARNING 04: minimum elevation drop used for Conduit C4834
  WARNING 04: minimum elevation drop used for Conduit C4835
  WARNING 04: minimum elevation drop used for Conduit C4836
  WARNING 04: minimum elevation drop used for Conduit C4838
  WARNING 04: minimum elevation drop used for Conduit C4840
  WARNING 04: minimum elevation drop used for Conduit C4843
  WARNING 04: minimum elevation drop used for Conduit C4844
  WARNING 04: minimum elevation drop used for Conduit C4845
  WARNING 04: minimum elevation drop used for Conduit C4847
  WARNING 04: minimum elevation drop used for Conduit C4849
  WARNING 04: minimum elevation drop used for Conduit C4853
  WARNING 04: minimum elevation drop used for Conduit C4854
  WARNING 04: minimum elevation drop used for Conduit C4855
  WARNING 04: minimum elevation drop used for Conduit C4857
  WARNING 04: minimum elevation drop used for Conduit C4858
  WARNING 04: minimum elevation drop used for Conduit C4860
  WARNING 04: minimum elevation drop used for Conduit C4861
  WARNING 04: minimum elevation drop used for Conduit C4863
  WARNING 04: minimum elevation drop used for Conduit C4866
  WARNING 04: minimum elevation drop used for Conduit C4868
  WARNING 04: minimum elevation drop used for Conduit C4869
  WARNING 04: minimum elevation drop used for Conduit C4871
  WARNING 04: minimum elevation drop used for Conduit C4873
  WARNING 04: minimum elevation drop used for Conduit C4875
  WARNING 04: minimum elevation drop used for Conduit C4877
  WARNING 04: minimum elevation drop used for Conduit C4878
  WARNING 04: minimum elevation drop used for Conduit C4880
  WARNING 04: minimum elevation drop used for Conduit C4882
  WARNING 04: minimum elevation drop used for Conduit C4884
  WARNING 04: minimum elevation drop used for Conduit C4887
  WARNING 04: minimum elevation drop used for Conduit C4890
  WARNING 04: minimum elevation drop used for Conduit C4891
  WARNING 04: minimum elevation drop used for Conduit C4892
  WARNING 04: minimum elevation drop used for Conduit C4894
  WARNING 04: minimum elevation drop used for Conduit C4896
  WARNING 04: minimum elevation drop used for Conduit C4898
  WARNING 04: minimum elevation drop used for Conduit C4899
  WARNING 04: minimum elevation drop used for Conduit C4901
  WARNING 04: minimum elevation drop used for Conduit C4904
  WARNING 04: minimum elevation drop used for Conduit C4905
  WARNING 04: minimum elevation drop used for Conduit C4906
  WARNING 04: minimum elevation drop used for Conduit C4927
  WARNING 04: minimum elevation drop used for Conduit C4931
  WARNING 04: minimum elevation drop used for Conduit C4937
  WARNING 04: minimum elevation drop used for Conduit C4944
  WARNING 04: minimum elevation drop used for Conduit C4955
  WARNING 04: minimum elevation drop used for Conduit C4964
  WARNING 04: minimum elevation drop used for Conduit C4982
  WARNING 04: minimum elevation drop used for Conduit C4991
  WARNING 04: minimum elevation drop used for Conduit C5003
  WARNING 04: minimum elevation drop used for Conduit C5012
  WARNING 04: minimum elevation drop used for Conduit C5015
  WARNING 04: minimum elevation drop used for Conduit C5024
  WARNING 04: minimum elevation drop used for Conduit C5044
  WARNING 04: minimum elevation drop used for Conduit C5048
  WARNING 04: minimum elevation drop used for Conduit C5049
  WARNING 04: minimum elevation drop used for Conduit C5050
  WARNING 04: minimum elevation drop used for Conduit C5053
  WARNING 04: minimum elevation drop used for Conduit C5054
  WARNING 04: minimum elevation drop used for Conduit C5058
  WARNING 04: minimum elevation drop used for Conduit C5060
  WARNING 04: minimum elevation drop used for Conduit C5061
  WARNING 04: minimum elevation drop used for Conduit C5063
  WARNING 04: minimum elevation drop used for Conduit C5065
  WARNING 04: minimum elevation drop used for Conduit C5068
  WARNING 04: minimum elevation drop used for Conduit C5069
  WARNING 04: minimum elevation drop used for Conduit C5073
  WARNING 04: minimum elevation drop used for Conduit C5076
  WARNING 04: minimum elevation drop used for Conduit C5077
  WARNING 04: minimum elevation drop used for Conduit C5078
  WARNING 04: minimum elevation drop used for Conduit C5080
  WARNING 04: minimum elevation drop used for Conduit C5081
  WARNING 04: minimum elevation drop used for Conduit C5082
  WARNING 04: minimum elevation drop used for Conduit C5083
  WARNING 04: minimum elevation drop used for Conduit C5084
  WARNING 04: minimum elevation drop used for Conduit C5086
  WARNING 04: minimum elevation drop used for Conduit C5089
  WARNING 04: minimum elevation drop used for Conduit C5090
  WARNING 04: minimum elevation drop used for Conduit C5091
  WARNING 04: minimum elevation drop used for Conduit C5093
  WARNING 04: minimum elevation drop used for Conduit C5095
  WARNING 04: minimum elevation drop used for Conduit C5098
  WARNING 04: minimum elevation drop used for Conduit C5099
  WARNING 08: elevation drop exceeds length for Conduit C51
  WARNING 04: minimum elevation drop used for Conduit C5100
  WARNING 04: minimum elevation drop used for Conduit C5102
  WARNING 04: minimum elevation drop used for Conduit C5103
  WARNING 04: minimum elevation drop used for Conduit C5106
  WARNING 04: minimum elevation drop used for Conduit C5107
  WARNING 04: minimum elevation drop used for Conduit C5108
  WARNING 04: minimum elevation drop used for Conduit C5110
  WARNING 04: minimum elevation drop used for Conduit C5112
[...]
  WARNING 04: minimum elevation drop used for Conduit C8089
  WARNING 04: minimum elevation drop used for Conduit C8090
  WARNING 04: minimum elevation drop used for Conduit C8091
  WARNING 04: minimum elevation drop used for Conduit C8100
  WARNING 04: minimum elevation drop used for Conduit C8101
  WARNING 04: minimum elevation drop used for Conduit C8104
  WARNING 04: minimum elevation drop used for Conduit C8105
  WARNING 04: minimum elevation drop used for Conduit C8106
  WARNING 04: minimum elevation drop used for Conduit C8107
  WARNING 04: minimum elevation drop used for Conduit C8109
  WARNING 04: minimum elevation drop used for Conduit C811
  WARNING 04: minimum elevation drop used for Conduit C8110
  WARNING 04: minimum elevation drop used for Conduit C8117
  WARNING 04: minimum elevation drop used for Conduit C8118
  WARNING 04: minimum elevation drop used for Conduit C8119
  WARNING 04: minimum elevation drop used for Conduit C812
  WARNING 04: minimum elevation drop used for Conduit C813
  WARNING 04: minimum elevation drop used for Conduit C8132
  WARNING 04: minimum elevation drop used for Conduit C8133
  WARNING 04: minimum elevation drop used for Conduit C8134
  WARNING 04: minimum elevation drop used for Conduit C8135
  WARNING 04: minimum elevation drop used for Conduit C8136
  WARNING 04: minimum elevation drop used for Conduit C8137
  WARNING 04: minimum elevation drop used for Conduit C8138
  WARNING 04: minimum elevation drop used for Conduit C8140
  WARNING 04: minimum elevation drop used for Conduit C8142
  WARNING 04: minimum elevation drop used for Conduit C8143
  WARNING 04: minimum elevation drop used for Conduit C8148
  WARNING 04: minimum elevation drop used for Conduit C8149
  WARNING 04: minimum elevation drop used for Conduit C8150
  WARNING 04: minimum elevation drop used for Conduit C8151
  WARNING 04: minimum elevation drop used for Conduit C8156
  WARNING 04: minimum elevation drop used for Conduit C8157
  WARNING 04: minimum elevation drop used for Conduit C816
  WARNING 04: minimum elevation drop used for Conduit C8164
  WARNING 04: minimum elevation drop used for Conduit C8165
  WARNING 04: minimum elevation drop used for Conduit C8166
  WARNING 04: minimum elevation drop used for Conduit C8167
  WARNING 04: minimum elevation drop used for Conduit C8168
  WARNING 04: minimum elevation drop used for Conduit C8169
  WARNING 04: minimum elevation drop used for Conduit C8170
  WARNING 04: minimum elevation drop used for Conduit C8172
  WARNING 04: minimum elevation drop used for Conduit C8173
  WARNING 04: minimum elevation drop used for Conduit C8174
  WARNING 04: minimum elevation drop used for Conduit C8175
  WARNING 04: minimum elevation drop used for Conduit C8176
  WARNING 04: minimum elevation drop used for Conduit C8177
  WARNING 04: minimum elevation drop used for Conduit C8179
  WARNING 04: minimum elevation drop used for Conduit C8181
  WARNING 04: minimum elevation drop used for Conduit C8182
  WARNING 04: minimum elevation drop used for Conduit C8183
  WARNING 04: minimum elevation drop used for Conduit C8187
  WARNING 04: minimum elevation drop used for Conduit C8188
  WARNING 04: minimum elevation drop used for Conduit C8190
  WARNING 04: minimum elevation drop used for Conduit C8192
  WARNING 04: minimum elevation drop used for Conduit C8198
  WARNING 04: minimum elevation drop used for Conduit C8199
  WARNING 04: minimum elevation drop used for Conduit C8207
  WARNING 04: minimum elevation drop used for Conduit C8208
  WARNING 04: minimum elevation drop used for Conduit C8209
  WARNING 04: minimum elevation drop used for Conduit C821
  WARNING 04: minimum elevation drop used for Conduit C8211
  WARNING 04: minimum elevation drop used for Conduit C8212
  WARNING 04: minimum elevation drop used for Conduit C8213
  WARNING 04: minimum elevation drop used for Conduit C8216
  WARNING 04: minimum elevation drop used for Conduit C8217
  WARNING 04: minimum elevation drop used for Conduit C822
  WARNING 04: minimum elevation drop used for Conduit C8222
  WARNING 04: minimum elevation drop used for Conduit C8223
  WARNING 04: minimum elevation drop used for Conduit C8224
  WARNING 04: minimum elevation drop used for Conduit C8225
  WARNING 04: minimum elevation drop used for Conduit C8227
  WARNING 04: minimum elevation drop used for Conduit C8228
  WARNING 04: minimum elevation drop used for Conduit C8236
  WARNING 04: minimum elevation drop used for Conduit C8237
  WARNING 04: minimum elevation drop used for Conduit C824
  WARNING 04: minimum elevation drop used for Conduit C8247
  WARNING 04: minimum elevation drop used for Conduit C8248
  WARNING 04: minimum elevation drop used for Conduit C8249
  WARNING 04: minimum elevation drop used for Conduit C825
  WARNING 04: minimum elevation drop used for Conduit C8250
  WARNING 04: minimum elevation drop used for Conduit C8251
  WARNING 04: minimum elevation drop used for Conduit C8252
  WARNING 04: minimum elevation drop used for Conduit C8253
  WARNING 04: minimum elevation drop used for Conduit C8254
  WARNING 04: minimum elevation drop used for Conduit C8255
  WARNING 04: minimum elevation drop used for Conduit C8260
  WARNING 04: minimum elevation drop used for Conduit C8261
  WARNING 04: minimum elevation drop used for Conduit C8262
  WARNING 04: minimum elevation drop used for Conduit C8263
  WARNING 04: minimum elevation drop used for Conduit C8264
  WARNING 04: minimum elevation drop used for Conduit C8269
  WARNING 04: minimum elevation drop used for Conduit C8270
  WARNING 04: minimum elevation drop used for Conduit C8277
  WARNING 04: minimum elevation drop used for Conduit C8278
  WARNING 04: minimum elevation drop used for Conduit C8279
  WARNING 04: minimum elevation drop used for Conduit C8280
  WARNING 04: minimum elevation drop used for Conduit C8281
  WARNING 04: minimum elevation drop used for Conduit C8282
  WARNING 04: minimum elevation drop used for Conduit C8284
  WARNING 04: minimum elevation drop used for Conduit C8285
  WARNING 04: minimum elevation drop used for Conduit C8286
  WARNING 04: minimum elevation drop used for Conduit C8287
  WARNING 04: minimum elevation drop used for Conduit C8288
  WARNING 04: minimum elevation drop used for Conduit C8289
  WARNING 04: minimum elevation drop used for Conduit C8290
  WARNING 04: minimum elevation drop used for Conduit C8293
  WARNING 04: minimum elevation drop used for Conduit C8301
  WARNING 04: minimum elevation drop used for Conduit C8310
  WARNING 04: minimum elevation drop used for Conduit C8317
  WARNING 04: minimum elevation drop used for Conduit C8318
  WARNING 08: elevation drop exceeds length for Conduit C8323
  WARNING 04: minimum elevation drop used for Conduit C8328
  WARNING 04: minimum elevation drop used for Conduit C8329
  WARNING 04: minimum elevation drop used for Conduit C8426
  WARNING 04: minimum elevation drop used for Conduit C8427
  WARNING 04: minimum elevation drop used for Conduit C8431
  WARNING 04: minimum elevation drop used for Conduit C8434
  WARNING 04: minimum elevation drop used for Conduit C8435
  WARNING 04: minimum elevation drop used for Conduit C8441
  WARNING 04: minimum elevation drop used for Conduit C8446
  WARNING 04: minimum elevation drop used for Conduit C8448
  WARNING 04: minimum elevation drop used for Conduit C8450
  WARNING 04: minimum elevation drop used for Conduit C8451
  WARNING 04: minimum elevation drop used for Conduit C8453
  WARNING 04: minimum elevation drop used for Conduit C8454
  WARNING 04: minimum elevation drop used for Conduit C8456
  WARNING 04: minimum elevation drop used for Conduit C8457
  WARNING 04: minimum elevation drop used for Conduit C8458
  WARNING 04: minimum elevation drop used for Conduit C8459
  WARNING 04: minimum elevation drop used for Conduit C8460
  WARNING 04: minimum elevation drop used for Conduit C8461
  WARNING 04: minimum elevation drop used for Conduit C8462
  WARNING 04: minimum elevation drop used for Conduit C8463
  WARNING 04: minimum elevation drop used for Conduit C8464
  WARNING 04: minimum elevation drop used for Conduit C8465
  WARNING 04: minimum elevation drop used for Conduit C8476
  WARNING 04: minimum elevation drop used for Conduit C8477
  WARNING 04: minimum elevation drop used for Conduit C8478
  WARNING 04: minimum elevation drop used for Conduit C8479
  WARNING 04: minimum elevation drop used for Conduit C8486
  WARNING 04: minimum elevation drop used for Conduit C8487
  WARNING 04: minimum elevation drop used for Conduit C8488
  WARNING 04: minimum elevation drop used for Conduit C8489
  WARNING 04: minimum elevation drop used for Conduit C8490
  WARNING 04: minimum elevation drop used for Conduit C8491
  WARNING 04: minimum elevation drop used for Conduit C8492
  WARNING 04: minimum elevation drop used for Conduit C8493
  WARNING 04: minimum elevation drop used for Conduit C851
  WARNING 04: minimum elevation drop used for Conduit C852
  WARNING 04: minimum elevation drop used for Conduit C8523
  WARNING 04: minimum elevation drop used for Conduit C8524
  WARNING 04: minimum elevation drop used for Conduit C8527
  WARNING 04: minimum elevation drop used for Conduit C853
  WARNING 04: minimum elevation drop used for Conduit C8533
  WARNING 04: minimum elevation drop used for Conduit C8534
  WARNING 04: minimum elevation drop used for Conduit C8535
  WARNING 04: minimum elevation drop used for Conduit C8541
  WARNING 04: minimum elevation drop used for Conduit C8543
  WARNING 04: minimum elevation drop used for Conduit C8545
  WARNING 04: minimum elevation drop used for Conduit C8546
  WARNING 04: minimum elevation drop used for Conduit C8552
  WARNING 04: minimum elevation drop used for Conduit C8553
  WARNING 04: minimum elevation drop used for Conduit C8560
  WARNING 04: minimum elevation drop used for Conduit C8561
  WARNING 04: minimum elevation drop used for Conduit C8563
  WARNING 04: minimum elevation drop used for Conduit C8564
  WARNING 04: minimum elevation drop used for Conduit C8565
  WARNING 04: minimum elevation drop used for Conduit C8567
  WARNING 04: minimum elevation drop used for Conduit C8568
  WARNING 04: minimum elevation drop used for Conduit C8569
  WARNING 04: minimum elevation drop used for Conduit C8570
  WARNING 04: minimum elevation drop used for Conduit C8576
  WARNING 04: minimum elevation drop used for Conduit C8577
  WARNING 04: minimum elevation drop used for Conduit C8584
  WARNING 04: minimum elevation drop used for Conduit C8585
  WARNING 04: minimum elevation drop used for Conduit C8586
  WARNING 04: minimum elevation drop used for Conduit C8587
  WARNING 04: minimum elevation drop used for Conduit C8588
  WARNING 04: minimum elevation drop used for Conduit C8589
  WARNING 04: minimum elevation drop used for Conduit C8593
  WARNING 04: minimum elevation drop used for Conduit C8594
  WARNING 04: minimum elevation drop used for Conduit C8595
  WARNING 04: minimum elevation drop used for Conduit C8596
  WARNING 04: minimum elevation drop used for Conduit C8597
  WARNING 04: minimum elevation drop used for Conduit C8598
  WARNING 04: minimum elevation drop used for Conduit C8599
  WARNING 04: minimum elevation drop used for Conduit C8603
  WARNING 04: minimum elevation drop used for Conduit C8604
  WARNING 04: minimum elevation drop used for Conduit C8633
  WARNING 04: minimum elevation drop used for Conduit C8634
  WARNING 04: minimum elevation drop used for Conduit C8643
  WARNING 04: minimum elevation drop used for Conduit C8649
  WARNING 04: minimum elevation drop used for Conduit C865
  WARNING 08: elevation drop exceeds length for Conduit C8656
  WARNING 04: minimum elevation drop used for Conduit C8658
  WARNING 04: minimum elevation drop used for Conduit C866
  WARNING 04: minimum elevation drop used for Conduit C8666
  WARNING 04: minimum elevation drop used for Conduit C8667
  WARNING 04: minimum elevation drop used for Conduit C8673
  WARNING 04: minimum elevation drop used for Conduit C8675
  WARNING 04: minimum elevation drop used for Conduit C8676
  WARNING 04: minimum elevation drop used for Conduit C871
  WARNING 04: minimum elevation drop used for Conduit C872
  WARNING 04: minimum elevation drop used for Conduit C8762
  WARNING 04: minimum elevation drop used for Conduit C8764
  WARNING 04: minimum elevation drop used for Conduit C8765
  WARNING 04: minimum elevation drop used for Conduit C8766
  WARNING 04: minimum elevation drop used for Conduit C8767
  WARNING 04: minimum elevation drop used for Conduit C8772
  WARNING 04: minimum elevation drop used for Conduit C8774
  WARNING 04: minimum elevation drop used for Conduit C8775
  WARNING 04: minimum elevation drop used for Conduit C8778
  WARNING 04: minimum elevation drop used for Conduit C8779
  WARNING 04: minimum elevation drop used for Conduit C8786
  WARNING 04: minimum elevation drop used for Conduit C8788
  WARNING 04: minimum elevation drop used for Conduit C8789
  WARNING 04: minimum elevation drop used for Conduit C879
  WARNING 04: minimum elevation drop used for Conduit C8792
  WARNING 04: minimum elevation drop used for Conduit C880
  WARNING 04: minimum elevation drop used for Conduit C8826
  WARNING 04: minimum elevation drop used for Conduit C8827
  WARNING 04: minimum elevation drop used for Conduit C8832
  WARNING 04: minimum elevation drop used for Conduit C8833
  WARNING 04: minimum elevation drop used for Conduit C8834
  WARNING 04: minimum elevation drop used for Conduit C8841
  WARNING 04: minimum elevation drop used for Conduit C8845
  WARNING 04: minimum elevation drop used for Conduit C8863
  WARNING 04: minimum elevation drop used for Conduit C8864
  WARNING 04: minimum elevation drop used for Conduit C8865
  WARNING 04: minimum elevation drop used for Conduit C8870
  WARNING 04: minimum elevation drop used for Conduit C8871
  WARNING 04: minimum elevation drop used for Conduit C8872
  WARNING 04: minimum elevation drop used for Conduit C8884
  WARNING 04: minimum elevation drop used for Conduit C8885
  WARNING 04: minimum elevation drop used for Conduit C889
  WARNING 04: minimum elevation drop used for Conduit C8904
  WARNING 04: minimum elevation drop used for Conduit C8905
  WARNING 04: minimum elevation drop used for Conduit C8946
  WARNING 04: minimum elevation drop used for Conduit C8957
  WARNING 04: minimum elevation drop used for Conduit C8958
  WARNING 04: minimum elevation drop used for Conduit C8959
  WARNING 04: minimum elevation drop used for Conduit C8965
  WARNING 04: minimum elevation drop used for Conduit C8966
  WARNING 04: minimum elevation drop used for Conduit C904
  WARNING 04: minimum elevation drop used for Conduit C905
  WARNING 04: minimum elevation drop used for Conduit C9062
  WARNING 04: minimum elevation drop used for Conduit C907
  WARNING 04: minimum elevation drop used for Conduit C9073
  WARNING 04: minimum elevation drop used for Conduit C908
  WARNING 04: minimum elevation drop used for Conduit C9124
  WARNING 04: minimum elevation drop used for Conduit C9128
  WARNING 04: minimum elevation drop used for Conduit C9152
  WARNING 04: minimum elevation drop used for Conduit C9156
  WARNING 04: minimum elevation drop used for Conduit C9157
  WARNING 04: minimum elevation drop used for Conduit C9203
  WARNING 04: minimum elevation drop used for Conduit C9210
  WARNING 04: minimum elevation drop used for Conduit C9211
  WARNING 04: minimum elevation drop used for Conduit C9212
  WARNING 04: minimum elevation drop used for Conduit C9213
  WARNING 04: minimum elevation drop used for Conduit C9214
  WARNING 04: minimum elevation drop used for Conduit C9216
  WARNING 04: minimum elevation drop used for Conduit C9224
  WARNING 04: minimum elevation drop used for Conduit C923
  WARNING 04: minimum elevation drop used for Conduit C924
  WARNING 04: minimum elevation drop used for Conduit C9243
  WARNING 04: minimum elevation drop used for Conduit C925
  WARNING 04: minimum elevation drop used for Conduit C926
  WARNING 04: minimum elevation drop used for Conduit C927
  WARNING 04: minimum elevation drop used for Conduit C93
  WARNING 04: minimum elevation drop used for Conduit C9367
  WARNING 04: minimum elevation drop used for Conduit C9373
  WARNING 04: minimum elevation drop used for Conduit C9377
  WARNING 04: minimum elevation drop used for Conduit C9378
  WARNING 04: minimum elevation drop used for Conduit C938
  WARNING 04: minimum elevation drop used for Conduit C939
  WARNING 04: minimum elevation drop used for Conduit C9391
  WARNING 04: minimum elevation drop used for Conduit C940
  WARNING 04: minimum elevation drop used for Conduit C9400
  WARNING 04: minimum elevation drop used for Conduit C9401
  WARNING 08: elevation drop exceeds length for Conduit C9403
  WARNING 04: minimum elevation drop used for Conduit C941
  WARNING 04: minimum elevation drop used for Conduit C9436
  WARNING 04: minimum elevation drop used for Conduit C9437
  WARNING 04: minimum elevation drop used for Conduit C952
  WARNING 04: minimum elevation drop used for Conduit C953
  WARNING 04: minimum elevation drop used for Conduit C9549
  WARNING 04: minimum elevation drop used for Conduit C9557
  WARNING 04: minimum elevation drop used for Conduit C9562
  WARNING 04: minimum elevation drop used for Conduit C9564
  WARNING 04: minimum elevation drop used for Conduit C9577
  WARNING 04: minimum elevation drop used for Conduit C9580
  WARNING 04: minimum elevation drop used for Conduit C9586
  WARNING 04: minimum elevation drop used for Conduit C961
  WARNING 04: minimum elevation drop used for Conduit C9616
  WARNING 04: minimum elevation drop used for Conduit C962
  WARNING 04: minimum elevation drop used for Conduit C9622
  WARNING 04: minimum elevation drop used for Conduit C9623
  WARNING 04: minimum elevation drop used for Conduit C974
  WARNING 04: minimum elevation drop used for Conduit C9751
  WARNING 04: minimum elevation drop used for Conduit C9761
  WARNING 04: minimum elevation drop used for Conduit C9763
  WARNING 04: minimum elevation drop used for Conduit C978
  WARNING 04: minimum elevation drop used for Conduit C9785
  WARNING 04: minimum elevation drop used for Conduit C9799
  WARNING 04: minimum elevation drop used for Conduit C980
  WARNING 04: minimum elevation drop used for Conduit C981
  WARNING 08: elevation drop exceeds length for Conduit C9955
  WARNING 08: elevation drop exceeds length for Conduit C9972
  
  ****************
  Analysis Options
  ****************
  Flow Units ............... CFS
  Process Models:
    Rainfall/Runoff ........ YES
    RDII ................... NO
    Snowmelt ............... NO
    Groundwater ............ NO
    Flow Routing ........... YES
    Ponding Allowed ........ NO
    Water Quality .......... NO
  Infiltration Method ...... GREEN_AMPT
  Flow Routing Method ...... DYNWAVE
  Surcharge Method ......... EXTRAN
  Starting Date ............ 07/07/1990 00:00:00
  Ending Date .............. 07/07/1990 06:00:00
  Antecedent Dry Days ...... 0.0
  Report Time Step ......... 00:01:00
  Wet Time Step ............ 00:01:00
  Dry Time Step ............ 00:05:00
  Routing Time Step ........ 0.50 sec
  Variable Time Step ....... YES
  Maximum Trials ........... 8
  Number of Threads ........ 8
  Head Tolerance ........... 0.005000 ft
  
  
  *********************
  Rainfall File Summary
  *********************
  Station    First        Last         Recording   Periods    Periods    Periods
  ID         Date         Date         Frequency  w/Precip    Missing    Malfunc.
  -------------------------------------------------------------------------------
  
  
  ERROR 317: cannot open rainfall data file C:\PCSWMM\Workshop\2D\NewRiver_2D_files\CROWN KING AZ_022329_Precip_1980-2010.prn.

  Analysis begun on:  Tue Jun 23 20:58:31 2026
  Analysis ended on:  Tue Jun 23 20:58:31 2026
  Total elapsed time: < 1 sec