
  EPA STORM WATER MANAGEMENT MODEL - VERSION 5.2 (Build 5.2.4)
  ------------------------------------------------------------

  Imported Network from SWMM4 to Test all Outfall Types in SWMM5 
  
  *************
  Element Count
  *************
  Number of rain gages ...... 0
  Number of subcatchments ... 0
  Number of nodes ........... 11
  Number of links ........... 10
  Number of pollutants ...... 0
  Number of land uses ....... 0
  
  
  ************
  Node Summary
  ************
                                           Invert      Max.    Ponded    External
  Name                 Type                 Elev.     Depth      Area    Inflow  
  -------------------------------------------------------------------------------
  Inflow_Node          JUNCTION            190.00     10.00       0.0    Yes
  Free_Outfall         OUTFALL             185.00      6.00       0.0
  Fixed_Outfall        OUTFALL             185.00      6.00       0.0
  Tidal                OUTFALL             185.00      6.00       0.0
  Normal_Outfall       OUTFALL             185.00      6.00       0.0
  TimeSeries_Outfall   OUTFALL             185.00      6.00       0.0
  Tidal_2nd            OUTFALL             185.00      6.00       0.0
  TS_2nd               OUTFALL             185.00      6.00       0.0
  Fixed_Outfall_2nd    OUTFALL             185.00      6.00       0.0
  Free_Outfall_2nd     OUTFALL             185.00      6.00       0.0
  Normal_Outfall_2nd   OUTFALL             185.00      6.00       0.0
  
  
  ************
  Link Summary
  ************
  Name             From Node        To Node          Type            Length    %Slope Roughness
  ---------------------------------------------------------------------------------------------
  1000             Inflow_Node      Free_Outfall     CONDUIT         1000.0    0.5000    0.0300
  2000             Inflow_Node      Fixed_Outfall    CONDUIT         1000.0    0.5000    0.0300
  4000             Inflow_Node      Tidal_2nd        CONDUIT         1000.0    0.5000    0.0300
  6000             Inflow_Node      Normal_Outfall   CONDUIT         1000.0    0.5000    0.0300
  7000             Inflow_Node      TimeSeries_Outfall CONDUIT         1000.0    0.5000    0.0300
  1000a            Inflow_Node      Free_Outfall_2nd CONDUIT         1000.0    0.5000    0.0300
  6000a            Inflow_Node      Normal_Outfall_2nd CONDUIT         1000.0    0.5000    0.0300
  4000a            Inflow_Node      Tidal            CONDUIT         1000.0    0.5000    0.0300
  7000a            Inflow_Node      TS_2nd           CONDUIT         1000.0    0.5000    0.0300
  2000a            Inflow_Node      Fixed_Outfall_2nd CONDUIT         1000.0    0.5000    0.0300
  
  
  *********************
  Cross Section Summary
  *********************
                                        Full     Full     Hyd.     Max.   No. of     Full
  Conduit          Shape               Depth     Area     Rad.    Width  Barrels     Flow
  ---------------------------------------------------------------------------------------
  1000             CIRCULAR             6.00    28.27     1.50     6.00        1   129.77
  2000             CIRCULAR             6.00    28.27     1.50     6.00        1   129.77
  4000             CIRCULAR             6.00    28.27     1.50     6.00        1   129.77
  6000             CIRCULAR             6.00    28.27     1.50     6.00        1   129.77
  7000             CIRCULAR             6.00    28.27     1.50     6.00        1   129.77
  1000a            CIRCULAR             6.00    28.27     1.50     6.00        1   129.77
  6000a            CIRCULAR             6.00    28.27     1.50     6.00        1   129.77
  4000a            CIRCULAR             6.00    28.27     1.50     6.00        1   129.77
  7000a            CIRCULAR             6.00    28.27     1.50     6.00        1   129.77
  2000a            CIRCULAR             6.00    28.27     1.50     6.00        1   129.77
  
  
  ****************
  Analysis Options
  ****************
  Flow Units ............... CFS
  Process Models:
    Rainfall/Runoff ........ NO
    RDII ................... NO
    Snowmelt ............... NO
    Groundwater ............ NO
    Flow Routing ........... YES
    Ponding Allowed ........ NO
    Water Quality .......... NO
  Flow Routing Method ...... DYNWAVE
  Surcharge Method ......... EXTRAN
  Starting Date ............ 01/01/1988 00:00:00
  Ending Date .............. 01/01/1988 12:00:00
  Antecedent Dry Days ...... 0.0
  Report Time Step ......... 00:15:00
  Routing Time Step ........ 60.00 sec
  Variable Time Step ....... YES
  Maximum Trials ........... 8
  Number of Threads ........ 1
  Head Tolerance ........... 0.005000 ft
  
  
  **************************        Volume        Volume
  Flow Routing Continuity        acre-feet      10^6 gal
  **************************     ---------     ---------
  Dry Weather Inflow .......         0.000         0.000
  Wet Weather Inflow .......         0.000         0.000
  Groundwater Inflow .......         0.000         0.000
  RDII Inflow ..............         0.000         0.000
  External Inflow ..........        22.726         7.406
  External Outflow .........        23.062         7.515
  Flooding Loss ............         0.000         0.000
  Evaporation Loss .........         0.000         0.000
  Exfiltration Loss ........         0.000         0.000
  Initial Stored Volume ....         1.004         0.327
  Final Stored Volume ......         0.771         0.251
  Continuity Error (%) .....        -0.436
  
  
  ***************************
  Time-Step Critical Elements
  ***************************
  None
  
  
  ********************************
  Highest Flow Instability Indexes
  ********************************
  All links are stable.
  
  
  *********************************
  Most Frequent Nonconverging Nodes
  *********************************
  Convergence obtained at all time steps.
  
  
  *************************
  Routing Time Step Summary
  *************************
  Minimum Time Step           :    59.50 sec
  Average Time Step           :    59.92 sec
  Maximum Time Step           :    60.00 sec
  % of Time in Steady State   :     0.00
  Average Iterations per Step :     2.00
  % of Steps Not Converging   :     0.00
  Time Step Frequencies       :
     60.000 - 23.031 sec      :   100.00 %
     23.031 -  8.841 sec      :     0.00 %
      8.841 -  3.393 sec      :     0.00 %
      3.393 -  1.303 sec      :     0.00 %
      1.303 -  0.500 sec      :     0.00 %
  
  
  ******************
  Node Depth Summary
  ******************
  
  ---------------------------------------------------------------------------------
                                 Average  Maximum  Maximum  Time of Max    Reported
                                   Depth    Depth      HGL   Occurrence   Max Depth
  Node                 Type         Feet     Feet     Feet  days hr:min        Feet
  ---------------------------------------------------------------------------------
  Inflow_Node          JUNCTION     0.58     1.00   191.00     0  00:00        0.60
  Free_Outfall         OUTFALL      0.29     0.55   185.55     0  00:01        0.30
  Fixed_Outfall        OUTFALL      1.00     1.00   186.00     0  00:00        1.00
  Tidal                OUTFALL      2.10     3.00   188.00     0  00:00        3.00
  Normal_Outfall       OUTFALL      0.57     0.92   185.92     0  00:01        0.59
  TimeSeries_Outfall   OUTFALL      2.00     3.00   188.00     0  12:00        3.00
  Tidal_2nd            OUTFALL      2.10     3.00   188.00     0  00:00        3.00
  TS_2nd               OUTFALL      2.00     3.00   188.00     0  12:00        3.00
  Fixed_Outfall_2nd    OUTFALL      1.00     1.00   186.00     0  00:00        1.00
  Free_Outfall_2nd     OUTFALL      0.29     0.55   185.55     0  00:01        0.30
  Normal_Outfall_2nd   OUTFALL      0.57     0.92   185.92     0  00:01        0.59
  
  
  *******************
  Node Inflow Summary
  *******************
  
  -------------------------------------------------------------------------------------------------
                                  Maximum  Maximum                  Lateral       Total        Flow
                                  Lateral    Total  Time of Max      Inflow      Inflow     Balance
                                   Inflow   Inflow   Occurrence      Volume      Volume       Error
  Node                 Type           CFS      CFS  days hr:min    10^6 gal    10^6 gal     Percent
  -------------------------------------------------------------------------------------------------
  Inflow_Node          JUNCTION     25.00    25.00     0  01:01        7.41        7.41      -1.458
  Free_Outfall         OUTFALL       0.00     4.64     0  00:01           0       0.461       0.000
  Fixed_Outfall        OUTFALL       0.00     6.12     0  00:01           0       0.827       0.000
  Tidal                OUTFALL       0.00     6.41     0  00:01           0       0.827       0.000
  Normal_Outfall       OUTFALL       0.00     6.68     0  00:01           0       0.815       0.000
  TimeSeries_Outfall   OUTFALL       0.00     6.41     0  00:01           0       0.827       0.000
  Tidal_2nd            OUTFALL       0.00     6.41     0  00:01           0       0.827       0.000
  TS_2nd               OUTFALL       0.00     6.41     0  00:01           0       0.827       0.000
  Fixed_Outfall_2nd    OUTFALL       0.00     6.12     0  00:01           0       0.827       0.000
  Free_Outfall_2nd     OUTFALL       0.00     4.64     0  00:01           0       0.461       0.000
  Normal_Outfall_2nd   OUTFALL       0.00     6.68     0  00:01           0       0.815       0.000
  
  
  **********************
  Node Surcharge Summary
  **********************
  
  No nodes were surcharged.
  
  
  *********************
  Node Flooding Summary
  *********************
  
  No nodes were flooded.
  
  
  ***********************
  Outfall Loading Summary
  ***********************
  
  -----------------------------------------------------------
                         Flow       Avg       Max       Total
                         Freq      Flow      Flow      Volume
  Outfall Node           Pcnt       CFS       CFS    10^6 gal
  -----------------------------------------------------------
  Free_Outfall         100.00      1.42      4.64       0.461
  Fixed_Outfall        100.00      2.56      6.12       0.827
  Tidal                100.00      2.56      6.41       0.827
  Normal_Outfall       100.00      2.52      6.68       0.815
  TimeSeries_Outfall   100.00      2.56      6.41       0.827
  Tidal_2nd            100.00      2.56      6.41       0.827
  TS_2nd               100.00      2.56      6.41       0.827
  Fixed_Outfall_2nd    100.00      2.56      6.12       0.827
  Free_Outfall_2nd     100.00      1.42      4.64       0.461
  Normal_Outfall_2nd   100.00      2.52      6.68       0.815
  -----------------------------------------------------------
  System               100.00     23.23     60.54       7.515
  
  
  ********************
  Link Flow Summary
  ********************
  
  -----------------------------------------------------------------------------
                                 Maximum  Time of Max   Maximum    Max/    Max/
                                  |Flow|   Occurrence   |Veloc|    Full    Full
  Link                 Type          CFS  days hr:min    ft/sec    Flow   Depth
  -----------------------------------------------------------------------------
  1000                 CONDUIT      4.64     0  00:01      2.32    0.04    0.12
  2000                 CONDUIT      6.12     0  00:01      2.12    0.05    0.17
  4000                 CONDUIT      6.41     0  00:01      1.22    0.05    0.33
  6000                 CONDUIT      6.68     0  00:01      2.41    0.05    0.15
  7000                 CONDUIT      6.41     0  00:01      1.22    0.05    0.33
  1000a                CONDUIT      4.64     0  00:01      2.32    0.04    0.12
  6000a                CONDUIT      6.68     0  00:01      2.41    0.05    0.15
  4000a                CONDUIT      6.41     0  00:01      1.22    0.05    0.33
  7000a                CONDUIT      6.41     0  00:01      1.22    0.05    0.33
  2000a                CONDUIT      6.12     0  00:01      2.12    0.05    0.17
  
  
  ***************************
  Flow Classification Summary
  ***************************
  
  -------------------------------------------------------------------------------------
                      Adjusted    ---------- Fraction of Time in Flow Class ---------- 
                       /Actual         Up    Down  Sub   Sup   Up    Down  Norm  Inlet 
  Conduit               Length    Dry  Dry   Dry   Crit  Crit  Crit  Crit  Ltd   Ctrl  
  -------------------------------------------------------------------------------------
  1000                    1.00   0.00  0.00  0.00  1.00  0.00  0.00  0.00  0.00  0.00
  2000                    1.00   0.00  0.00  0.00  1.00  0.00  0.00  0.00  1.00  0.00
  4000                    1.00   0.00  0.00  0.00  1.00  0.00  0.00  0.00  1.00  0.00
  6000                    1.00   0.00  0.00  0.00  1.00  0.00  0.00  0.00  0.05  0.00
  7000                    1.00   0.00  0.00  0.00  1.00  0.00  0.00  0.00  1.00  0.00
  1000a                   1.00   0.00  0.00  0.00  1.00  0.00  0.00  0.00  0.00  0.00
  6000a                   1.00   0.00  0.00  0.00  1.00  0.00  0.00  0.00  0.05  0.00
  4000a                   1.00   0.00  0.00  0.00  1.00  0.00  0.00  0.00  1.00  0.00
  7000a                   1.00   0.00  0.00  0.00  1.00  0.00  0.00  0.00  1.00  0.00
  2000a                   1.00   0.00  0.00  0.00  1.00  0.00  0.00  0.00  1.00  0.00
  
  
  *************************
  Conduit Surcharge Summary
  *************************
  
  No conduits were surcharged.
  

  Analysis begun on:  Tue Jun 23 20:32:30 2026
  Analysis ended on:  Tue Jun 23 20:32:30 2026
  Total elapsed time: < 1 sec