
  EPA STORM WATER MANAGEMENT MODEL - VERSION 5.2 (Build 5.2.4)
  ------------------------------------------------------------

  Imported Network from SWMM4 to Test all Outfall Types in SWMM5 
  
  *************
  Element Count
  *************
  Number of rain gages ...... 0
  Number of subcatchments ... 0
  Number of nodes ........... 6
  Number of links ........... 10
  Number of pollutants ...... 0
  Number of land uses ....... 0
  
  
  ************
  Node Summary
  ************
                                           Invert      Max.    Ponded    External
  Name                 Type                 Elev.     Depth      Area    Inflow  
  -------------------------------------------------------------------------------
  Inflow_Node          JUNCTION            190.00     10.00       0.0    Yes
  Free_Outfall         OUTFALL             185.00      6.00       0.0
  Fixed_Outfall        OUTFALL             185.00      6.00       0.0
  Tidal                OUTFALL             185.00      6.00       0.0
  Normal_Outfall       OUTFALL             185.00      6.00       0.0
  TimeSeries_Outfall   OUTFALL             185.00      6.00       0.0
  
  
  ************
  Link Summary
  ************
  Name             From Node        To Node          Type            Length    %Slope Roughness
  ---------------------------------------------------------------------------------------------
  1000             Inflow_Node      Free_Outfall     CONDUIT         1000.0    0.5000    0.0300
  2000             Inflow_Node      Fixed_Outfall    CONDUIT         1000.0    0.5000    0.0300
  4000             Inflow_Node      Tidal            CONDUIT         1000.0    0.5000    0.0300
  6000             Inflow_Node      Normal_Outfall   CONDUIT         1000.0    0.5000    0.0300
  7000             Inflow_Node      TimeSeries_Outfall CONDUIT         1000.0    0.5000    0.0300
  1000a            Inflow_Node      Free_Outfall     CONDUIT         1000.0    0.5000    0.0300
  6000a            Inflow_Node      Normal_Outfall   CONDUIT         1000.0    0.5000    0.0300
  4000a            Inflow_Node      Tidal            CONDUIT         1000.0    0.5000    0.0300
  7000a            Inflow_Node      TimeSeries_Outfall CONDUIT         1000.0    0.5000    0.0300
  2000a            Inflow_Node      Fixed_Outfall    CONDUIT         1000.0    0.5000    0.0300
  
  
  *********************
  Cross Section Summary
  *********************
                                        Full     Full     Hyd.     Max.   No. of     Full
  Conduit          Shape               Depth     Area     Rad.    Width  Barrels     Flow
  ---------------------------------------------------------------------------------------
  1000             CIRCULAR             6.00    28.27     1.50     6.00        1   129.77
  2000             CIRCULAR             6.00    28.27     1.50     6.00        1   129.77
  4000             CIRCULAR             6.00    28.27     1.50     6.00        1   129.77
  6000             CIRCULAR             6.00    28.27     1.50     6.00        1   129.77
  7000             CIRCULAR             6.00    28.27     1.50     6.00        1   129.77
  1000a            CIRCULAR             6.00    28.27     1.50     6.00        1   129.77
  6000a            CIRCULAR             6.00    28.27     1.50     6.00        1   129.77
  4000a            CIRCULAR             6.00    28.27     1.50     6.00        1   129.77
  7000a            CIRCULAR             6.00    28.27     1.50     6.00        1   129.77
  2000a            CIRCULAR             6.00    28.27     1.50     6.00        1   129.77
  
  
  ****************
  Analysis Options
  ****************
  Flow Units ............... CFS
  Process Models:
    Rainfall/Runoff ........ NO
    RDII ................... NO
    Snowmelt ............... NO
    Groundwater ............ NO
    Flow Routing ........... YES
    Ponding Allowed ........ NO
    Water Quality .......... NO
  Flow Routing Method ...... DYNWAVE
  Surcharge Method ......... EXTRAN
  Starting Date ............ 01/01/1988 00:00:00
  Ending Date .............. 01/01/1988 12:00:00
  Antecedent Dry Days ...... 0.0
  Report Time Step ......... 00:15:00
  Routing Time Step ........ 60.00 sec
  Variable Time Step ....... YES
  Maximum Trials ........... 8
  Number of Threads ........ 1
  Head Tolerance ........... 0.005000 ft
  
  
  ERROR 141: Outfall Free_Outfall has more than 1 inlet link or an outlet link.
  
  ERROR 141: Outfall Fixed_Outfall has more than 1 inlet link or an outlet link.
  
  ERROR 141: Outfall Tidal has more than 1 inlet link or an outlet link.
  
  ERROR 141: Outfall Normal_Outfall has more than 1 inlet link or an outlet link.
  
  ERROR 141: Outfall TimeSeries_Outfall has more than 1 inlet link or an outlet link.
  
  ERROR 145: Drainage system has no acceptable outlet nodes.

  Analysis begun on:  Tue Jun 23 20:32:30 2026
  Analysis ended on:  Tue Jun 23 20:32:30 2026
  Total elapsed time: < 1 sec