
  EPA STORM WATER MANAGEMENT MODEL - VERSION 5.2 (Build 5.2.4)
  ------------------------------------------------------------

  Scenario Run :  BASE 
  Carroll County Hydraulic Modeling - Calibrated Sept 2018 
  WARNING 03: negative offset ignored for Link GMB105
  WARNING 05: minimum slope used for Conduit GMB134
  WARNING 03: negative offset ignored for Link GMB14
  WARNING 05: minimum slope used for Conduit GMB14
  WARNING 03: negative offset ignored for Link GMB15
  WARNING 05: minimum slope used for Conduit GMB15
  WARNING 05: minimum slope used for Conduit GMB16
  WARNING 05: minimum slope used for Conduit GMB165
  WARNING 03: negative offset ignored for Link GMB18
  WARNING 03: negative offset ignored for Link GMB19
  WARNING 04: minimum elevation drop used for Conduit GMB19
  WARNING 05: minimum slope used for Conduit GMB19
  WARNING 03: negative offset ignored for Link GMB20
  WARNING 03: negative offset ignored for Link GMB27
  WARNING 03: negative offset ignored for Link GMB29
  WARNING 03: negative offset ignored for Link GMB30
  WARNING 03: negative offset ignored for Link GMB30
  WARNING 03: negative offset ignored for Link GMB31
  WARNING 03: negative offset ignored for Link GMB31
  WARNING 03: negative offset ignored for Link GMB34
  WARNING 03: negative offset ignored for Link GMB37
  WARNING 03: negative offset ignored for Link GMB60
  WARNING 03: negative offset ignored for Link GMB63
  WARNING 03: negative offset ignored for Link GMB63
  WARNING 03: negative offset ignored for Link GMB64
  WARNING 03: negative offset ignored for Link GMB66
  WARNING 05: minimum slope used for Conduit GMB73
  WARNING 05: minimum slope used for Conduit GMB75
  WARNING 03: negative offset ignored for Link GMB79
  WARNING 03: negative offset ignored for Link GMB95
  WARNING 05: minimum slope used for Conduit SGM1251
  WARNING 05: minimum slope used for Conduit SGM1252
  WARNING 05: minimum slope used for Conduit SGM1286
  WARNING 05: minimum slope used for Conduit SGM1287
  WARNING 05: minimum slope used for Conduit SGM1288
  WARNING 05: minimum slope used for Conduit SGM1289
  WARNING 05: minimum slope used for Conduit SGM1290
  WARNING 05: minimum slope used for Conduit SGM1291
  WARNING 03: negative offset ignored for Link SGM1349
  WARNING 05: minimum slope used for Conduit SGM1410
  WARNING 05: minimum slope used for Conduit SGM1411
  WARNING 05: minimum slope used for Conduit SGM1412
  WARNING 05: minimum slope used for Conduit SGM1413
  WARNING 05: minimum slope used for Conduit SGM1414
  WARNING 05: minimum slope used for Conduit SGM1415
  WARNING 03: negative offset ignored for Link SGM1416
  WARNING 05: minimum slope used for Conduit SGM1416
  WARNING 05: minimum slope used for Conduit SGM1417
  WARNING 03: negative offset ignored for Link SGM1548
  WARNING 04: minimum elevation drop used for Conduit SGM1548
  WARNING 05: minimum slope used for Conduit SGM1548
  WARNING 03: negative offset ignored for Link SGM1618
  WARNING 03: negative offset ignored for Link SGM1667
  WARNING 05: minimum slope used for Conduit SGM1759
  WARNING 05: minimum slope used for Conduit SGM1761
  WARNING 05: minimum slope used for Conduit SGM2430
  WARNING 03: negative offset ignored for Link SGM258
  WARNING 02: maximum depth increased for Node EWFM
  WARNING 02: maximum depth increased for Node SMFM
  WARNING 02: maximum depth increased for Node SRFM
  
  ****************
  Analysis Options
  ****************
  Flow Units ............... MGD
  Process Models:
    Rainfall/Runoff ........ YES
    RDII ................... YES
    Snowmelt ............... NO
    Groundwater ............ NO
    Flow Routing ........... YES
    Ponding Allowed ........ YES
    Water Quality .......... NO
  Flow Routing Method ...... DYNWAVE
  Surcharge Method ......... EXTRAN
  Starting Date ............ 11/28/2016 00:00:00
  Ending Date .............. 12/03/2016 23:55:00
  Antecedent Dry Days ...... 5.0
  Report Time Step ......... 00:05:00
  Routing Time Step ........ 10.00 sec
  Variable Time Step ....... YES
  Maximum Trials ........... 6
  Number of Threads ........ 1
  Head Tolerance ........... 0.005000 ft
  
  
  *********************
  Rainfall File Summary
  *********************
  Station    First        Last         Recording   Periods    Periods    Periods
  ID         Date         Date         Frequency  w/Precip    Missing    Malfunc.
  -------------------------------------------------------------------------------
  
  
  ERROR 317: cannot open rainfall data file C:\Users\dickinsonre\Desktop\FreedomCal_11-9-18\FM0RainData.txt.

  Analysis begun on:  Tue Jun 23 21:16:46 2026
  Analysis ended on:  Tue Jun 23 21:16:47 2026
  Total elapsed time: 00:00:01