
  EPA STORM WATER MANAGEMENT MODEL - VERSION 5.2 (Build 5.2.4)
  ------------------------------------------------------------

  Scenario Run :  ORIGINAL_SYS 
  WARNING 04: minimum elevation drop used for Conduit FM-824_22
  WARNING 04: minimum elevation drop used for Conduit FM-LS221
  WARNING 04: minimum elevation drop used for Conduit FM-LS222
  WARNING 04: minimum elevation drop used for Conduit FM-LS251
  WARNING 04: minimum elevation drop used for Conduit GM-824_78
  WARNING 04: minimum elevation drop used for Conduit GM-919_117
  WARNING 04: minimum elevation drop used for Conduit GM-929_161
  WARNING 04: minimum elevation drop used for Conduit GM-929_209
  WARNING 04: minimum elevation drop used for Conduit GM-929_211
  WARNING 04: minimum elevation drop used for Conduit GM-929_221
  WARNING 04: minimum elevation drop used for Conduit GM-929_223
  WARNING 04: minimum elevation drop used for Conduit GM-929_3
  WARNING 04: minimum elevation drop used for Conduit GM-929_44
  WARNING 04: minimum elevation drop used for Conduit GM-930_168
  WARNING 04: minimum elevation drop used for Conduit PX-9609
  WARNING 02: maximum depth increased for Node J-220-OUT
  WARNING 02: maximum depth increased for Node J-221-OUT
  WARNING 02: maximum depth increased for Node J-225-OUT
  WARNING 02: maximum depth increased for Node J-226-OUT
  WARNING 02: maximum depth increased for Node J-230-OUT
  WARNING 02: maximum depth increased for Node JN_919_22
  WARNING 02: maximum depth increased for Node JN_919_9
  WARNING 02: maximum depth increased for Node JN_920_1
  WARNING 02: maximum depth increased for Node JN_920_12
  WARNING 02: maximum depth increased for Node JN_929_19
  WARNING 02: maximum depth increased for Node JN_930_16
  WARNING 02: maximum depth increased for Node JN_930_19
  WARNING 02: maximum depth increased for Node JN_930_24
  WARNING 02: maximum depth increased for Node JN_930_28
  WARNING 02: maximum depth increased for Node JN_930_38
  
  ****************
  Analysis Options
  ****************
  Flow Units ............... GPM
  Process Models:
    Rainfall/Runoff ........ YES
    RDII ................... NO
    Snowmelt ............... NO
    Groundwater ............ NO
    Flow Routing ........... YES
    Ponding Allowed ........ NO
    Water Quality .......... NO
  Flow Routing Method ...... DYNWAVE
  Surcharge Method ......... EXTRAN
  Starting Date ............ 01/01/2002 00:00:00
  Ending Date .............. 01/08/2002 00:00:00
  Antecedent Dry Days ...... 5.0
  Report Time Step ......... 00:15:00
  Routing Time Step ........ 10.00 sec
  Variable Time Step ....... YES
  Maximum Trials ........... 8
  Number of Threads ........ 1
  Head Tolerance ........... 0.001000 ft
  
  
  **************************        Volume        Volume
  Flow Routing Continuity        acre-feet      10^6 gal
  **************************     ---------     ---------
  Dry Weather Inflow .......         2.176         0.709
  Wet Weather Inflow .......         0.000         0.000
  Groundwater Inflow .......         0.000         0.000
  RDII Inflow ..............         0.000         0.000
  External Inflow ..........         0.000         0.000
  External Outflow .........         1.761         0.574
  Flooding Loss ............         0.001         0.000
  Evaporation Loss .........         0.000         0.000
  Exfiltration Loss ........         0.000         0.000
  Initial Stored Volume ....         0.116         0.038
  Final Stored Volume ......         0.440         0.144
  Continuity Error (%) .....         3.899
  
  
  *************************
  Highest Continuity Errors
  *************************
  Node WW-250 (-106.32%)
  Node WW-1002 (-50.98%)
  Node MH_824_61 (50.20%)
  Node WW-242 (38.90%)
  Node WW-247 (33.48%)
  
  
  ***************************
  Time-Step Critical Elements
  ***************************
  None
  
  
  ********************************
  Highest Flow Instability Indexes
  ********************************
  Link GM-930_179 (22)
  Link GM-919_228 (18)
  Link GM-929_198 (17)
  Link GM-919_61 (17)
  Link GM-813_1 (15)
  
  
  *********************************
  Most Frequent Nonconverging Nodes
  *********************************
  Node OFALL-12 (24.58%)
  Node WW-147_BC (24.58%)
  Node WW-232_OUTFALL (24.58%)
  Node MH_919_228 (4.34%)
  Node MH_930_179 (4.08%)
  
  
  *************************
  Routing Time Step Summary
  *************************
  Minimum Time Step           :     0.23 sec
  Average Time Step           :     9.93 sec
  Maximum Time Step           :    10.00 sec
  % of Time in Steady State   :     0.00
  Average Iterations per Step :     4.77
  % of Steps Not Converging   :    24.58
  Time Step Frequencies       :
     10.000 -  1.585 sec      :    99.98 %
      1.585 -  0.251 sec      :     0.01 %
      0.251 -  0.040 sec      :     0.00 %
      0.040 -  0.006 sec      :     0.00 %
      0.006 -  0.001 sec      :     0.00 %
  
  
  ******************
  Node Depth Summary
  ******************
  
  ---------------------------------------------------------------------------------
                                 Average  Maximum  Maximum  Time of Max    Reported
                                   Depth    Depth      HGL   Occurrence   Max Depth
  Node                 Type         Feet     Feet     Feet  days hr:min        Feet
  ---------------------------------------------------------------------------------
  J-1002-OUT           JUNCTION     7.61    14.99    22.49     0  00:07       14.46
  J-1003-OUT           JUNCTION     4.06    91.20   102.80     0  00:05       78.32
  J-147-OUT            JUNCTION     4.01    38.36    47.96     0  00:00        3.97
  J-220-OUT            JUNCTION     2.20    15.24    21.24     5  21:56       11.69
  J-221-OUT            JUNCTION     0.79    15.32    23.32     6  03:43       15.09
  J-222-OUT            JUNCTION     0.00     0.00     5.00     0  00:00        0.00
  J-223-OUT            JUNCTION     0.21    36.95    46.95     6  17:26       36.77
  J-224-OUT            JUNCTION     0.07    17.29    28.29     0  00:01        5.70
  J-225-OUT            JUNCTION     2.53    30.79    35.99     5  18:01       26.76
  J-226-OUT            JUNCTION     2.18    78.17    83.17     0  00:00       29.99
  J-227-OUT            JUNCTION     0.14    28.66    36.96     6  07:42       27.20
  J-228-OUT            JUNCTION     0.14    12.15    31.75     4  20:12       11.47
  J-229-OUT            JUNCTION     0.50    64.77    69.77     0  00:00       56.52
  J-230-OUT            JUNCTION     9.80    46.52    51.02     6  22:02       44.94
  J-231-OUT            JUNCTION     0.60    21.38    25.88     2  01:17       20.04
  J-232-OUT            JUNCTION     5.42    54.30    61.30     0  00:00        5.33
  J-242-OUT            JUNCTION     0.00     0.00    12.30     0  00:00        0.00
  J-243-OUT            JUNCTION     0.03     5.99    23.69     5  21:55        4.96
  J-246-OUT            JUNCTION     0.05    42.80    60.70     0  00:02        1.34
  J-247-OUT            JUNCTION     0.00     0.00     7.00     0  00:00        0.00
  J-250-OUT            JUNCTION     2.50    12.36    23.86     0  00:00       10.27
  J-251-OUT            JUNCTION     0.00     0.00     8.50     0  00:00        0.00
  J-258-OUT            JUNCTION     0.00     0.49     8.89     0  00:01        0.01
  JN_824_1             JUNCTION     4.65    43.09    52.09     0  00:00        4.62
  JN_824_10            JUNCTION     0.07    30.91    44.81     0  00:06        0.47
  JN_824_2             JUNCTION     0.00     0.00     8.50     0  00:00        0.00
  JN_824_20            JUNCTION     0.00     0.00     9.20     0  00:00        0.00
  JN_824_21            JUNCTION     1.35    62.54    76.34     0  00:00        6.82
  JN_824_22            JUNCTION     0.13    39.77    54.77     0  00:02        5.47
  JN_824_25            JUNCTION     0.01     0.24    15.24     0  00:06        0.16
  JN_824_26            JUNCTION     0.00     0.13    15.63     5  21:56        0.13
  JN_824_8             JUNCTION     4.50    32.39    41.89     0  00:00       12.10
  JN_825_10            JUNCTION     0.00     0.00     5.00     0  00:00        0.00
  JN_825_6             JUNCTION     4.96    91.84   102.54     0  00:05       78.92
  JN_825_7             JUNCTION     5.11    12.31    22.31     0  00:07       11.88
  JN_919_22            JUNCTION     0.14    13.74    24.74     2  22:25        8.56
  JN_919_26            JUNCTION     0.46    15.59    26.19     0  00:01        4.97
  JN_919_3             JUNCTION     0.20    38.17    43.17     6  17:26       37.48
  JN_919_9             JUNCTION     0.84    39.06    47.06     2  22:06       14.79
  JN_920_1             JUNCTION     1.96    29.87    35.87     5  18:01       25.32
  JN_920_12            JUNCTION     5.75    41.60    50.90     6  22:02       39.99
  JN_920_23            JUNCTION     0.30    26.46    31.46     2  01:17       19.22
  JN_929_19            JUNCTION     0.24     9.99    24.99     5  01:03        6.89
  JN_929_40            JUNCTION     0.13    11.67    30.17     4  20:12       10.65
  JN_929_43            JUNCTION     3.85    67.61    76.21     0  00:01        3.78
  JN_929_5             JUNCTION     0.02     8.92    23.92     6  07:44        7.82
  JN_930_16            JUNCTION     2.89    15.72    21.02     5  21:56       12.19
  JN_930_19            JUNCTION     0.09     4.14    14.14     4  21:57        3.55
  JN_930_24            JUNCTION     2.98    27.81    34.41     5  18:01       14.52
  JN_930_28            JUNCTION     1.24    25.17    34.07     5  18:02       13.72
  JN_930_38            JUNCTION     0.18    23.34    33.54     5  18:00       20.79
  JX-6929              JUNCTION     0.20    40.27    45.27     6  17:25       37.47
  MH_813_1             JUNCTION     2.43     5.60     4.10     6  17:20        5.59
  MH_813_2             JUNCTION     2.89     6.10     4.10     6  17:20        6.09
  MH_813_3             JUNCTION     3.38     6.60     4.10     6  17:20        6.59
  MH_824_1             JUNCTION     0.01     0.01     1.91     0  21:30        0.01
  MH_824_10            JUNCTION     0.88     3.02    -0.88     7  00:00        3.02
  MH_824_100           JUNCTION     0.01     0.01    13.21     6  22:00        0.01
  MH_824_101           JUNCTION     0.01     0.01    11.21     6  22:00        0.01
  MH_824_102           JUNCTION     0.01     0.01     9.21     6  22:00        0.01
  MH_824_103           JUNCTION     0.00     0.00    17.20     6  22:00        0.00
  MH_824_104           JUNCTION     0.01     0.02     8.62     6  22:00        0.02
  MH_824_105           JUNCTION     0.00     0.00     6.80     0  00:00        0.00
  MH_824_106           JUNCTION     0.01     0.01     5.51     6  22:00        0.01
  MH_824_107           JUNCTION     0.00     0.00     5.30     6  22:00        0.00
  MH_824_108           JUNCTION     0.06     0.70     4.10     6  17:21        0.69
  MH_824_109           JUNCTION     0.01     0.70    14.80     5  21:54        0.66
  MH_824_11            JUNCTION     0.01     0.01     2.61     6  20:58        0.01
  MH_824_110           JUNCTION     0.00     0.01     9.11     1  22:00        0.01
  MH_824_111           JUNCTION     0.00     0.00    14.40     0  00:20        0.00
  MH_824_112           JUNCTION     0.00     0.00    10.60     6  22:00        0.00
  MH_824_113           JUNCTION     0.01     0.01    14.41     0  08:00        0.01
  MH_824_114           JUNCTION     0.12     2.20    14.80     5  21:54        2.16
  MH_824_115           JUNCTION     0.06     1.71    14.81     5  21:54        1.66
  MH_824_116           JUNCTION     0.51     4.00    14.80     5  21:53        3.96
  MH_824_117           JUNCTION     0.01     0.01    14.81     0  07:42        0.01
  MH_824_118           JUNCTION     0.01     0.01    16.31     0  07:20        0.01
  MH_824_119           JUNCTION     0.01     0.01     4.11     3  22:00        0.01
  MH_824_12            JUNCTION     0.01     0.01     1.81     6  22:00        0.01
  MH_824_120           JUNCTION     0.00     0.00    11.10     6  22:00        0.00
  MH_824_121           JUNCTION     0.16     1.30     4.10     6  17:21        1.29
  MH_824_122           JUNCTION     1.51     4.40     4.10     6  17:21        4.39
  MH_824_123           JUNCTION     1.94     5.00     4.10     6  17:20        4.99
  MH_824_124           JUNCTION     0.00     0.00     8.70     6  22:00        0.00
  MH_824_125           JUNCTION     0.68     2.90     4.10     6  17:21        2.89
  MH_824_126           JUNCTION     0.36     2.10     4.10     6  17:21        2.09
  MH_824_127           JUNCTION     0.00     0.01    10.91     5  07:40        0.01
  MH_824_128           JUNCTION     1.09     5.50    14.80     5  21:54        5.46
  MH_824_129           JUNCTION     0.00     0.01    11.21     6  22:00        0.01
  MH_824_13            JUNCTION     2.18     5.02    -0.88     7  00:00        5.02
  MH_824_130           JUNCTION     0.00     0.00     9.70     6  22:00        0.00
  MH_824_131           JUNCTION     0.00     0.00    12.40     6  22:00        0.00
  MH_824_132           JUNCTION     0.54     4.11    14.81     5  21:54        4.06
  MH_824_133           JUNCTION     1.25     5.80    14.80     5  21:54        5.76
  MH_824_134           JUNCTION     0.00     0.01    15.21     1  22:00        0.01
  MH_824_135           JUNCTION     0.01     0.01    14.81     6  22:00        0.01
  MH_824_136           JUNCTION     0.01     0.01    12.91     6  22:00        0.01
  MH_824_137           JUNCTION     0.01     0.01    14.61     6  22:00        0.01
  MH_824_138           JUNCTION     0.00     0.00     8.20     0  00:00        0.00
  MH_824_139           JUNCTION     0.01     0.01    12.01     6  22:00        0.01
  MH_824_14            JUNCTION     0.01     0.02     1.02     6  22:00        0.02
  MH_824_140           JUNCTION     3.16     8.80    14.80     5  21:53        8.76
  MH_824_141           JUNCTION     1.87     6.90    14.80     5  21:54        6.86
  MH_824_142           JUNCTION     2.57     8.00    14.80     5  21:54        7.96
  MH_824_143           JUNCTION     0.01     0.01    13.21     0  07:27        0.01
  MH_824_144           JUNCTION     0.01     0.01    11.41     6  21:35        0.01
  MH_824_145           JUNCTION     0.01     0.01     7.21     1  21:40        0.01
  MH_824_146           JUNCTION     0.01     0.01    13.61     6  22:00        0.01
  MH_824_147           JUNCTION     0.50     2.50     4.10     6  17:20        2.49
  MH_824_148           JUNCTION     2.25     5.40     4.10     6  17:20        5.39
  MH_824_149           JUNCTION     1.03     3.60     4.10     6  17:20        3.59
  MH_824_15            JUNCTION     0.17     1.22    -0.88     6  23:59        1.22
  MH_824_150           JUNCTION     0.01     0.01    14.21     3  07:59        0.01
  MH_824_151           JUNCTION     0.01     0.01     4.21     1  21:56        0.01
  MH_824_152           JUNCTION     1.65     4.60     4.10     6  17:20        4.59
  MH_824_153           JUNCTION     4.01     9.80    14.80     5  21:54        9.76
  MH_824_154           JUNCTION     0.00     0.00    10.50     5  20:54        0.00
  MH_824_155           JUNCTION     0.01     0.01    11.21     6  22:00        0.01
  MH_824_156           JUNCTION     0.01     0.01    13.11     6  22:00        0.01
  MH_824_157           JUNCTION     0.01     0.02    11.82     6  22:00        0.02
  MH_824_158           JUNCTION     0.02     0.02    10.22     6  22:00        0.02
  MH_824_159           JUNCTION     0.16     2.40    14.80     5  21:53        2.36
  MH_824_16            JUNCTION     0.04     0.52    -0.88     6  23:58        0.52
  MH_824_160           JUNCTION     0.00     0.26    11.96     5  21:57        0.24
  MH_824_161           JUNCTION     0.01     0.01    11.01     6  22:00        0.01
  MH_824_162           JUNCTION     0.02     0.03     9.63     6  22:00        0.03
  MH_824_163           JUNCTION     0.01     0.01    12.21     6  22:00        0.01
  MH_824_164           JUNCTION     0.00     0.00    16.20     6  21:35        0.00
  MH_824_17            JUNCTION     0.02     0.02    -0.08     6  20:42        0.02
  MH_824_18            JUNCTION     0.00     0.00     3.60     0  21:31        0.00
  MH_824_19            JUNCTION     2.85     5.82    -0.88     6  23:59        5.82
  MH_824_2             JUNCTION     0.01     0.01     0.81     0  21:53        0.01
  MH_824_20            JUNCTION     0.02     0.02    -0.48     3  22:00        0.02
  MH_824_21            JUNCTION     0.00     0.00     4.30     6  22:00        0.00
  MH_824_22            JUNCTION     0.00     0.01     2.41     6  22:00        0.01
  MH_824_23            JUNCTION     0.01     0.01     2.11     6  22:00        0.01
  MH_824_24            JUNCTION     0.00     0.00     5.30     0  00:27        0.00
  MH_824_25            JUNCTION     3.13    14.80     7.80     0  00:00        6.12
  MH_824_26            JUNCTION     0.00     0.00     3.50     0  00:25        0.00
  MH_824_27            JUNCTION     0.00     0.00     1.30     6  22:00        0.00
  MH_824_28            JUNCTION     0.00     0.00     0.20     6  21:02        0.00
  MH_824_29            JUNCTION     0.00     0.00    -0.90     6  21:27        0.00
  MH_824_3             JUNCTION     0.01     0.01     0.21     3  22:00        0.01
  MH_824_30            JUNCTION     0.01     0.08    -1.22     6  23:57        0.08
  MH_824_31            JUNCTION     0.00     0.00     3.50     0  07:20        0.00
  MH_824_32            JUNCTION     0.00     0.00     2.90     0  07:48        0.00
  MH_824_33            JUNCTION     1.74     4.42    -0.88     6  23:59        4.42
  MH_824_34            JUNCTION     2.50     5.42    -0.88     6  23:59        5.42
  MH_824_35            JUNCTION     0.11     0.68    -1.22     6  23:57        0.68
  MH_824_36            JUNCTION     0.00     0.00     2.00     6  22:00        0.00
  MH_824_37            JUNCTION     0.27     0.99    -1.21     6  23:56        0.98
  MH_824_38            JUNCTION     0.51     1.28    -1.22     6  23:59        1.28
  MH_824_39            JUNCTION     0.00     0.00     1.80     6  22:00        0.00
  MH_824_4             JUNCTION     0.01     0.01     1.61     0  20:57        0.01
  MH_824_40            JUNCTION     0.01     0.01     0.41     0  08:00        0.01
  MH_824_41            JUNCTION     0.00     0.00     7.30     6  22:00        0.00
  MH_824_42            JUNCTION     0.00     0.00     4.50     6  22:00        0.00
  MH_824_43            JUNCTION     0.00     0.00     3.20     3  22:00        0.00
  MH_824_44            JUNCTION     0.00     0.01     0.51     6  21:45        0.01
  MH_824_45            JUNCTION     0.00     0.01    -0.99     0  21:55        0.01
  MH_824_46            JUNCTION     0.01     0.01     1.31     1  08:00        0.01
  MH_824_47            JUNCTION     0.93     3.12    -0.88     6  23:59        3.12
  MH_824_48            JUNCTION     0.01     0.01     1.11     6  21:17        0.01
  MH_824_49            JUNCTION     0.00     0.00     6.40     6  22:00        0.00
  MH_824_5             JUNCTION     0.01     0.02    -0.88     7  00:00        0.02
  MH_824_50            JUNCTION     0.01     0.01     3.81     1  07:45        0.01
  MH_824_51            JUNCTION     0.00     0.01     2.91     6  21:45        0.01
  MH_824_52            JUNCTION     0.00     0.00     7.20     0  00:00        0.00
  MH_824_53            JUNCTION     0.00     0.00     2.50     6  21:29        0.00
  MH_824_54            JUNCTION     0.00     0.00     3.30     4  01:53        0.00
  MH_824_55            JUNCTION     0.00     0.00     2.70     6  21:12        0.00
  MH_824_56            JUNCTION     0.00     0.00     4.20     0  00:00        0.00
  MH_824_57            JUNCTION     0.00     0.00     3.60     1  07:43        0.00
  MH_824_58            JUNCTION     0.00     0.00     4.50     6  22:00        0.00
  MH_824_59            JUNCTION     0.00     0.00     3.00     0  07:48        0.00
  MH_824_6             JUNCTION     0.45     2.12    -0.88     7  00:00        2.12
  MH_824_60            JUNCTION     0.44     2.13    -0.87     6  23:59        2.12
  MH_824_61            JUNCTION     0.06     0.72    -0.88     6  23:52        0.72
  MH_824_62            JUNCTION     0.01     0.01     4.01     6  22:00        0.01
  MH_824_63            JUNCTION     0.01     0.06     0.16     0  00:00        0.02
  MH_824_64            JUNCTION     0.01     0.01     0.01     3  22:00        0.01
  MH_824_65            JUNCTION     0.00     0.00     4.30     6  22:00        0.00
  MH_824_66            JUNCTION     0.00     0.00     6.00     0  00:00        0.00
  MH_824_67            JUNCTION     0.02     0.02     1.52     6  22:00        0.02
  MH_824_68            JUNCTION     0.00     0.00     5.00     6  22:00        0.00
  MH_824_69            JUNCTION     0.00     0.00    10.10     0  00:00        0.00
  MH_824_7             JUNCTION     0.16     1.22    -0.88     6  23:58        1.22
  MH_824_70            JUNCTION     0.01     0.02     8.52     6  22:00        0.02
  MH_824_71            JUNCTION     0.00     0.00    10.00     6  22:00        0.00
  MH_824_72            JUNCTION     0.01     0.01     7.81     2  22:00        0.01
  MH_824_73            JUNCTION     0.00     0.00     9.10     6  22:00        0.00
  MH_824_74            JUNCTION     0.00     0.01     7.81     6  22:00        0.01
  MH_824_75            JUNCTION     0.01     0.05     7.25     7  00:00        0.05
  MH_824_76            JUNCTION     0.00     0.00     8.90     6  22:00        0.00
  MH_824_77            JUNCTION     0.01     0.01     8.21     6  22:00        0.01
  MH_824_78            JUNCTION     0.02     0.02     8.22     6  22:00        0.02
  MH_824_79            JUNCTION     0.00     0.00    13.10     3  22:00        0.00
  MH_824_8             JUNCTION     0.77     2.82    -0.88     6  23:59        2.81
  MH_824_80            JUNCTION     0.01     0.02     7.32     6  22:00        0.02
  MH_824_81            JUNCTION     0.00     0.00    11.60     4  21:11        0.00
  MH_824_82            JUNCTION     0.68     2.77     5.97     6  23:59        2.76
  MH_824_83            JUNCTION     0.23     1.67     5.97     6  23:59        1.66
  MH_824_84            JUNCTION     0.37     2.07     5.97     6  23:58        2.06
  MH_824_85            JUNCTION     0.04     0.46     5.96     6  23:57        0.46
  MH_824_86            JUNCTION     0.01     0.01     6.31     6  22:00        0.01
  MH_824_87            JUNCTION     0.00     0.00    10.90     4  21:48        0.00
  MH_824_88            JUNCTION     1.04     3.37     5.97     6  23:59        3.36
  MH_824_89            JUNCTION     1.41     3.86     5.96     6  23:54        3.86
  MH_824_9             JUNCTION     0.01     0.01     2.81     4  21:42        0.01
  MH_824_90            JUNCTION     0.01     0.01     7.61     3  22:00        0.01
  MH_824_91            JUNCTION     0.00     0.00     8.70     6  22:00        0.00
  MH_824_92            JUNCTION     0.00     0.00    11.40     0  00:18        0.00
  MH_824_93            JUNCTION     0.00     0.01     7.81     6  22:00        0.01
  MH_824_94            JUNCTION     0.01     0.01     7.11     6  22:00        0.01
  MH_824_95            JUNCTION     0.02     0.03     5.63     5  22:00        0.03
  MH_824_96            JUNCTION     0.01     0.01     5.81     6  22:00        0.01
  MH_824_97            JUNCTION     0.01     0.01    10.31     6  22:00        0.01
  MH_824_98            JUNCTION     0.01     0.01    11.71     6  22:00        0.01
  MH_824_99            JUNCTION     0.01     0.01    14.61     6  22:00        0.01
  MH_825_10            JUNCTION     0.01     0.01     0.31     3  21:29        0.01
  MH_825_11            JUNCTION     3.35     7.96    -1.14     6  23:58        7.96
  MH_825_12            JUNCTION     0.01     0.01     4.21     3  21:25        0.01
  MH_825_13            JUNCTION     0.01     0.01     6.51     5  07:51        0.01
  MH_825_14            JUNCTION     0.00     0.00    11.40     1  21:44        0.00
  MH_825_2             JUNCTION     0.00     0.56     2.96     0  00:02        0.02
  MH_825_3             JUNCTION     0.01     5.77     7.47     0  00:01        0.63
  MH_825_4             JUNCTION     0.00     2.35     4.25     0  00:03        0.41
  MH_825_5             JUNCTION     0.02     6.30    11.70     0  00:00        1.10
  MH_825_6             JUNCTION     0.01     0.01    11.81     6  21:28        0.01
  MH_825_7             JUNCTION     0.01     0.03     8.13     0  00:00        0.01
  MH_825_8             JUNCTION     0.14     1.06    -1.14     6  23:59        1.05
  MH_825_9             JUNCTION     0.07     0.66    -1.14     7  00:00        0.66
  MH_919_1             JUNCTION     0.03     0.17     9.47     0  00:22        0.16
  MH_919_10            JUNCTION     0.01     0.01     5.21     6  22:00        0.01
  MH_919_100           JUNCTION     0.01     0.01    10.31     6  22:00        0.01
  MH_919_101           JUNCTION     0.01     0.01     5.31     6  22:00        0.01
  MH_919_102           JUNCTION     0.02     0.02    10.02     2  20:39        0.02
  MH_919_103           JUNCTION     0.03     0.04     5.44     6  22:00        0.04
  MH_919_104           JUNCTION     0.01     0.01     4.51     6  22:00        0.01
  MH_919_105           JUNCTION     0.05     0.06    -0.94     6  22:00        0.06
  MH_919_106           JUNCTION     0.01     0.01    11.71     6  22:00        0.01
  MH_919_107           JUNCTION     0.01     0.01    10.61     6  22:00        0.01
  MH_919_108           JUNCTION     0.01     0.01     4.41     6  22:00        0.01
  MH_919_109           JUNCTION     1.76     5.50     7.50     6  03:43        5.49
  MH_919_11            JUNCTION     0.02     0.02    13.22     6  22:00        0.02
  MH_919_110           JUNCTION     0.01     0.02     4.42     6  22:00        0.02
  MH_919_111           JUNCTION     1.70     5.41     7.51     6  03:43        5.39
  MH_919_112           JUNCTION     0.02     0.02     8.52     6  22:00        0.02
  MH_919_113           JUNCTION     0.01     0.01     5.11     0  21:51        0.01
  MH_919_114           JUNCTION     0.01     0.01    11.71     6  22:00        0.01
  MH_919_115           JUNCTION     0.01     0.02     3.32     6  22:00        0.02
  MH_919_116           JUNCTION     0.02     0.02     2.52     6  22:00        0.02
  MH_919_117           JUNCTION     0.06     0.07     2.57     6  22:00        0.07
  MH_919_118           JUNCTION     0.01     0.01     5.81     0  21:31        0.01
  MH_919_119           JUNCTION     1.22     4.61     7.51     6  03:43        4.59
  MH_919_12            JUNCTION     0.02     0.02    12.12     6  22:00        0.02
  MH_919_120           JUNCTION     0.05     0.07    -0.03     6  22:02        0.07
  MH_919_121           JUNCTION     0.06     0.07     0.27     6  22:27        0.07
  MH_919_122           JUNCTION     0.05     0.07     0.57     6  22:02        0.07
  MH_919_123           JUNCTION     0.02     0.03     4.43     6  22:00        0.03
  MH_919_124           JUNCTION     0.04     0.05     1.05     6  22:00        0.05
  MH_919_125           JUNCTION     0.04     0.04     1.94     6  22:00        0.04
  MH_919_126           JUNCTION     0.04     0.04     2.64     6  22:00        0.04
  MH_919_127           JUNCTION     0.88     3.90     7.50     6  03:43        3.89
  MH_919_128           JUNCTION     0.01     0.01     3.51     6  22:00        0.01
  MH_919_129           JUNCTION     0.03     0.04     4.14     6  22:00        0.04
  MH_919_13            JUNCTION     0.04     0.17     7.97     0  00:30        0.17
  MH_919_130           JUNCTION     0.01     0.02     1.72     6  22:00        0.02
  MH_919_131           JUNCTION     0.03     0.03     3.03     6  22:00        0.03
  MH_919_132           JUNCTION     0.03     0.03     0.23     6  22:00        0.03
  MH_919_133           JUNCTION     0.01     0.01     5.11     6  22:00        0.01
  MH_919_134           JUNCTION     0.02     0.20     7.50     2  22:04        0.20
  MH_919_135           JUNCTION     0.08     1.11     7.51     2  22:03        1.09
  MH_919_136           JUNCTION     1.11     4.41     7.51     2  22:01        4.39
  MH_919_137           JUNCTION     0.56     3.11     7.51     6  03:43        3.09
  MH_919_138           JUNCTION     0.30     2.30     7.50     6  03:41        2.29
  MH_919_139           JUNCTION     0.01     0.01     9.41     6  22:00        0.01
  MH_919_14            JUNCTION     0.01     0.01    16.01     6  22:00        0.01
  MH_919_140           JUNCTION     0.00     0.01     8.01     6  22:00        0.01
  MH_919_141           JUNCTION     0.59     3.21     7.51     6  03:43        3.19
  MH_919_142           JUNCTION     0.01     0.01    10.61     6  22:00        0.01
  MH_919_143           JUNCTION     0.04     0.04     0.44     6  22:00        0.04
  MH_919_144           JUNCTION     0.01     0.01     7.91     0  21:57        0.01
  MH_919_145           JUNCTION     0.01     0.01    10.01     6  22:00        0.01
  MH_919_146           JUNCTION     0.01     0.01     6.91     6  22:00        0.01
  MH_919_147           JUNCTION     0.01     0.01     4.21     6  22:00        0.01
  MH_919_148           JUNCTION     0.66     3.41     7.51     6  03:43        3.39
  MH_919_149           JUNCTION     0.35     2.51     7.51     6  03:43        2.49
  MH_919_15            JUNCTION     0.02     0.02    14.72     6  22:00        0.02
  MH_919_150           JUNCTION     0.02     0.02     6.42     6  22:00        0.02
  MH_919_151           JUNCTION     0.01     0.01     8.11     6  22:00        0.01
  MH_919_152           JUNCTION     0.00     0.00     9.60     0  22:00        0.00
  MH_919_153           JUNCTION     0.01     0.01     6.11     6  22:00        0.01
  MH_919_154           JUNCTION     0.02     0.02     5.02     6  21:28        0.02
  MH_919_155           JUNCTION     0.02     0.03     1.63     6  22:00        0.03
  MH_919_156           JUNCTION     0.27     2.21     7.51     6  03:40        2.19
  MH_919_157           JUNCTION     0.01     0.01     8.51     6  22:00        0.01
  MH_919_158           JUNCTION     0.44     2.80     7.50     6  03:41        2.79
  MH_919_159           JUNCTION     0.01     0.01     8.01     6  22:00        0.01
  MH_919_16            JUNCTION     0.02     0.02    14.82     1  21:32        0.02
  MH_919_160           JUNCTION     0.01     0.01     5.21     6  22:00        0.01
  MH_919_161           JUNCTION     0.29     2.31     7.51     6  03:43        2.29
  MH_919_162           JUNCTION     0.02     0.02     3.12     6  22:00        0.02
  MH_919_163           JUNCTION     0.01     0.01     5.31     6  22:00        0.01
  MH_919_164           JUNCTION     0.02     0.02     5.22     6  22:00        0.02
  MH_919_165           JUNCTION     0.02     0.03     4.03     6  22:00        0.03
  MH_919_166           JUNCTION     0.01     0.01     6.51     6  22:00        0.01
  MH_919_167           JUNCTION     0.00     0.01     8.61     6  22:00        0.01
  MH_919_168           JUNCTION     0.01     0.01     8.01     1  21:38        0.01
  MH_919_169           JUNCTION     0.01     0.01     3.91     6  22:00        0.01
  MH_919_17            JUNCTION     0.01     0.22     9.32     5  22:01        0.21
  MH_919_170           JUNCTION     0.00     0.01     6.91     0  07:22        0.01
  MH_919_171           JUNCTION     0.01     0.02     7.52     3  22:00        0.02
  MH_919_172           JUNCTION     0.01     0.01     7.51     6  22:00        0.01
  MH_919_173           JUNCTION     0.01     0.02     4.52     6  22:00        0.02
  MH_919_174           JUNCTION     0.00     0.01     5.31     6  22:00        0.01
  MH_919_175           JUNCTION     0.01     0.01     5.51     6  22:00        0.01
  MH_919_176           JUNCTION     0.01     0.01     6.61     6  22:00        0.01
  MH_919_177           JUNCTION     0.02     0.02     5.82     1  07:39        0.02
  MH_919_178           JUNCTION     0.01     0.01     6.11     6  22:00        0.01
  MH_919_179           JUNCTION     0.01     0.01     6.81     6  22:00        0.01
  MH_919_18            JUNCTION     0.02     0.24     8.94     5  22:05        0.24
  MH_919_180           JUNCTION     0.01     0.01     7.81     6  22:00        0.01
  MH_919_181           JUNCTION     0.01     0.01     6.61     6  22:00        0.01
  MH_919_182           JUNCTION     0.02     0.03     4.73     6  22:00        0.03
  MH_919_183           JUNCTION     0.00     0.00     9.30     1  21:15        0.00
  MH_919_184           JUNCTION     0.02     0.02    -0.58     6  21:57        0.02
  MH_919_185           JUNCTION     0.03     0.20    -0.80     6  17:25        0.20
  MH_919_186           JUNCTION     0.00     0.00     7.20     6  22:00        0.00
  MH_919_187           JUNCTION     0.01     0.01     1.91     6  22:00        0.01
  MH_919_188           JUNCTION     0.00     0.01     4.51     6  22:00        0.01
  MH_919_189           JUNCTION     0.00     0.00     5.80     6  21:16        0.00
  MH_919_19            JUNCTION     0.01     0.01     8.51     6  22:00        0.01
  MH_919_190           JUNCTION     0.29     0.91    -0.79     6  17:22        0.90
  MH_919_191           JUNCTION     0.24     0.81    -0.79     6  17:24        0.80
  MH_919_192           JUNCTION     0.01     0.02     0.12     6  22:00        0.02
  MH_919_193           JUNCTION     0.01     0.01     1.71     6  22:00        0.01
  MH_919_194           JUNCTION     0.01     0.01     2.91     6  22:00        0.01
  MH_919_195           JUNCTION     0.00     0.01     9.01     5  22:00        0.01
  MH_919_196           JUNCTION     0.01     0.01     4.01     5  21:24        0.01
  MH_919_197           JUNCTION     0.03     0.27     3.57     6  10:34        0.20
  MH_919_198           JUNCTION     0.00     0.01    10.41     1  21:54        0.01
  MH_919_199           JUNCTION     0.01     0.01     7.01     6  22:00        0.01
  MH_919_2             JUNCTION     0.03     0.17    11.87     0  00:23        0.16
  MH_919_20            JUNCTION     0.01     0.01    10.11     0  21:49        0.01
  MH_919_200           JUNCTION     0.91     3.41     3.81     2  21:18        3.10
  MH_919_201           JUNCTION     1.28     4.18     3.88     2  21:18        3.80
  MH_919_202           JUNCTION     0.45     2.39     3.79     2  21:18        2.10
  MH_919_203           JUNCTION     0.21     1.66     3.76     2  21:17        1.40
  MH_919_204           JUNCTION     0.10     1.26     3.86     2  21:17        0.90
  MH_919_205           JUNCTION     0.02     0.02     1.72     0  08:00        0.02
  MH_919_206           JUNCTION     0.01     0.01     2.41     0  21:55        0.01
  MH_919_207           JUNCTION     0.02     0.03     4.53     6  22:02        0.03
  MH_919_208           JUNCTION     0.01     0.02     1.32     6  21:35        0.02
  MH_919_209           JUNCTION     0.02     0.03     5.03     2  22:00        0.03
  MH_919_21            JUNCTION     0.01     0.01    10.61     6  22:00        0.01
  MH_919_210           JUNCTION     0.02     0.02     5.62     6  22:00        0.02
  MH_919_211           JUNCTION     0.01     0.01     8.41     6  21:08        0.01
  MH_919_212           JUNCTION     0.01     0.01     4.11     6  22:00        0.01
  MH_919_213           JUNCTION     0.03     0.04     5.84     6  22:00        0.04
  MH_919_214           JUNCTION     0.01     0.01     4.71     6  21:28        0.01
  MH_919_215           JUNCTION     0.03     1.65     4.55     6  10:31        0.60
  MH_919_216           JUNCTION     0.01     0.01     9.51     0  07:14        0.01
  MH_919_217           JUNCTION     0.01     0.01     5.21     6  22:00        0.01
  MH_919_218           JUNCTION     0.00     0.01     9.21     6  22:00        0.01
  MH_919_219           JUNCTION     0.01     0.01     7.51     6  22:00        0.01
  MH_919_22            JUNCTION     0.01     0.02     9.42     6  22:00        0.02
  MH_919_220           JUNCTION     0.02     0.03     6.83     6  22:00        0.03
  MH_919_221           JUNCTION     4.25     8.01     3.61     2  21:18        7.90
  MH_919_222           JUNCTION     0.01     0.01     6.21     4  07:29        0.01
  MH_919_223           JUNCTION     0.38     2.11     3.61     6  10:31        2.00
  MH_919_224           JUNCTION     0.01     0.01     4.01     2  07:17        0.01
  MH_919_225           JUNCTION     0.01     0.01     8.21     6  22:00        0.01
  MH_919_226           JUNCTION     0.00     0.00     6.30     0  00:00        0.00
  MH_919_227           JUNCTION     0.02     0.02     7.22     6  22:00        0.02
  MH_919_228           JUNCTION     3.75     7.43     3.53     2  21:18        7.40
  MH_919_229           JUNCTION     0.89     3.12     3.52     2  21:18        3.10
  MH_919_23            JUNCTION     0.00     0.00    12.60     6  22:00        0.00
  MH_919_230           JUNCTION     0.74     2.82     3.52     2  21:18        2.80
  MH_919_231           JUNCTION     0.00     0.01     9.51     0  07:19        0.01
  MH_919_232           JUNCTION     0.00     0.00     8.90     0  07:52        0.00
  MH_919_233           JUNCTION     0.21     1.50     3.50     4  08:45        1.50
  MH_919_234           JUNCTION     0.01     0.10     3.50     5  16:52        0.09
  MH_919_24            JUNCTION     0.01     0.01    11.51     0  21:54        0.01
  MH_919_25            JUNCTION     0.01     0.01     9.11     0  21:20        0.01
  MH_919_26            JUNCTION     0.01     0.01    15.51     1  21:49        0.01
  MH_919_27            JUNCTION     0.03     0.20    -1.40     0  00:10        0.18
  MH_919_28            JUNCTION     0.02     0.28     8.18     5  22:06        0.27
  MH_919_29            JUNCTION     0.11     1.11     7.51     2  22:03        1.09
  MH_919_3             JUNCTION     0.03     0.17    11.07     0  00:25        0.16
  MH_919_30            JUNCTION     0.02     0.02     8.32     6  22:00        0.02
  MH_919_31            JUNCTION     0.02     0.02     7.62     6  22:00        0.02
  MH_919_32            JUNCTION     0.01     0.01    16.21     6  22:00        0.01
  MH_919_33            JUNCTION     0.00     0.01    11.91     6  20:58        0.01
  MH_919_34            JUNCTION     0.00     0.01    12.61     0  22:00        0.01
  MH_919_35            JUNCTION     0.01     0.01     0.31     6  22:00        0.01
  MH_919_36            JUNCTION     0.03     0.23    -2.47     0  00:14        0.23
  MH_919_37            JUNCTION     0.01     0.01     2.01     1  21:12        0.01
  MH_919_38            JUNCTION     0.01     0.01     9.81     0  21:57        0.01
  MH_919_39            JUNCTION     0.02     0.28     7.48     5  22:08        0.27
  MH_919_4             JUNCTION     0.01     0.25    11.15     5  22:00        0.25
  MH_919_40            JUNCTION     0.01     0.01     9.41     6  22:00        0.01
  MH_919_41            JUNCTION     0.87     3.91     7.51     6  03:43        3.89
  MH_919_42            JUNCTION     0.01     0.01     6.71     6  22:00        0.01
  MH_919_43            JUNCTION     0.30     2.21     7.51     2  22:03        2.19
  MH_919_44            JUNCTION     0.35     2.40     7.50     2  22:03        2.39
  MH_919_45            JUNCTION     0.01     0.01    10.71     6  22:00        0.01
  MH_919_46            JUNCTION     0.02     0.02     9.72     0  07:29        0.02
  MH_919_47            JUNCTION     0.02     0.02     9.02     0  07:47        0.02
  MH_919_48            JUNCTION     0.04     0.31    -3.39     4  21:48        0.30
  MH_919_49            JUNCTION     0.02     0.03     2.53     6  22:00        0.03
  MH_919_5             JUNCTION     0.02     0.02     6.22     6  22:00        0.02
  MH_919_50            JUNCTION     0.02     0.02     4.02     6  22:00        0.02
  MH_919_51            JUNCTION     0.01     0.01     5.31     6  22:00        0.01
  MH_919_52            JUNCTION     0.01     0.02     1.62     6  22:00        0.02
  MH_919_53            JUNCTION     0.01     0.02     4.72     6  22:00        0.02
  MH_919_54            JUNCTION     0.01     0.01     8.31     6  22:00        0.01
  MH_919_55            JUNCTION     0.58     3.10     7.50     2  22:03        3.09
  MH_919_56            JUNCTION     0.02     0.27     6.57     5  22:12        0.27
  MH_919_57            JUNCTION     1.22     4.63     7.53     6  03:44        4.59
  MH_919_58            JUNCTION     0.02     0.02     8.42     0  07:58        0.02
  MH_919_59            JUNCTION     1.33     4.80     7.50     2  22:03        4.79
  MH_919_6             JUNCTION     0.01     0.02     7.22     6  22:00        0.02
  MH_919_60            JUNCTION     2.36     6.41     7.51     2  22:03        6.39
  MH_919_61            JUNCTION     2.15     6.10     7.50     2  22:03        6.09
  MH_919_63            JUNCTION     0.02     0.24     5.74     5  22:14        0.24
  MH_919_64            JUNCTION     0.16     1.40    -3.40     2  20:46        1.40
  MH_919_65            JUNCTION     0.02     0.15     0.45     5  22:28        0.15
  MH_919_66            JUNCTION     0.03     0.26     2.66     5  22:22        0.26
  MH_919_67            JUNCTION     0.04     0.30     1.60     5  22:26        0.30
  MH_919_68            JUNCTION     0.01     0.01     9.31     5  21:10        0.01
  MH_919_69            JUNCTION     0.03     0.27     3.77     5  22:18        0.26
  MH_919_7             JUNCTION     0.00     0.00    10.60     6  22:00        0.00
  MH_919_70            JUNCTION     0.03     0.26     5.06     5  22:12        0.26
  MH_919_71            JUNCTION     4.83     9.56     7.66     6  03:44        9.39
  MH_919_72            JUNCTION     0.02     0.03     7.63     6  21:20        0.03
  MH_919_73            JUNCTION     0.03     0.03     6.93     6  22:00        0.03
  MH_919_74            JUNCTION     0.03     0.26     4.56     5  22:16        0.26
  MH_919_75            JUNCTION     0.03     0.04    -2.96     3  22:00        0.04
  MH_919_76            JUNCTION     0.01     0.01     8.51     6  22:00        0.01
  MH_919_77            JUNCTION     0.02     0.02     8.22     6  22:00        0.02
  MH_919_78            JUNCTION     0.04     0.50     7.50     6  03:43        0.49
  MH_919_79            JUNCTION     0.19     1.80     7.50     2  22:03        1.79
  MH_919_8             JUNCTION     0.01     0.01     9.01     6  22:00        0.01
  MH_919_80            JUNCTION     0.01     0.01    10.71     6  22:00        0.01
  MH_919_81            JUNCTION     4.10     8.72     7.62     6  03:44        8.59
  MH_919_82            JUNCTION     0.01     0.01     8.81     6  22:00        0.01
  MH_919_83            JUNCTION     0.02     0.02     2.22     6  22:00        0.02
  MH_919_84            JUNCTION     0.02     0.02     3.52     6  22:00        0.02
  MH_919_85            JUNCTION     0.01     0.02     4.52     6  22:00        0.02
  MH_919_86            JUNCTION     0.01     0.01     5.51     6  22:00        0.01
  MH_919_87            JUNCTION     0.01     0.01     5.51     6  22:00        0.01
  MH_919_88            JUNCTION     0.06     0.08    -2.22     6  22:00        0.08
  MH_919_89            JUNCTION     0.03     0.03     6.13     6  22:00        0.03
  MH_919_9             JUNCTION     0.03     0.23    -0.17     0  00:09        0.20
  MH_919_90            JUNCTION     0.01     0.01     6.11     6  22:00        0.01
  MH_919_91            JUNCTION     0.01     0.01     3.01     6  22:00        0.01
  MH_919_92            JUNCTION     0.01     0.02    10.22     0  22:00        0.02
  MH_919_93            JUNCTION     0.01     0.02     9.42     5  21:20        0.02
  MH_919_94            JUNCTION     0.01     0.01     5.61     1  21:33        0.01
  MH_919_95            JUNCTION     0.01     0.02     9.42     6  22:00        0.02
  MH_919_96            JUNCTION     2.96     7.20     7.50     2  22:03        7.19
  MH_919_97            JUNCTION     0.01     0.02     4.32     6  22:00        0.02
  MH_919_98            JUNCTION     0.01     0.01     5.61     6  22:00        0.01
  MH_919_99            JUNCTION     0.01     0.01     6.01     6  22:00        0.01
  MH_920_1             JUNCTION     3.46     7.12     3.52     2  21:18        7.10
  MH_920_10            JUNCTION     1.32     3.90     3.50     1  19:16        3.90
  MH_920_11            JUNCTION     0.13     1.21     3.51     4  08:44        1.21
  MH_920_12            JUNCTION     0.01     0.02     4.02     0  22:00        0.02
  MH_920_13            JUNCTION     0.01     0.01     5.61     6  22:00        0.01
  MH_920_14            JUNCTION     0.00     0.01     7.31     6  22:00        0.01
  MH_920_15            JUNCTION     1.27     3.81     3.51     4  08:45        3.80
  MH_920_16            JUNCTION     0.74     2.81     3.51     4  08:45        2.80
  MH_920_17            JUNCTION     0.43     2.11     3.51     1  19:15        2.10
  MH_920_18            JUNCTION     0.06     0.81     3.51     1  19:15        0.80
  MH_920_19            JUNCTION     0.01     0.01     4.01     6  22:00        0.01
  MH_920_2             JUNCTION     2.46     5.80     3.50     4  08:44        5.80
  MH_920_20            JUNCTION     0.01     0.01     5.21     6  22:00        0.01
  MH_920_21            JUNCTION     0.00     0.00     7.80     6  22:00        0.00
  MH_920_22            JUNCTION     0.02     0.02     4.62     6  22:00        0.02
  MH_920_23            JUNCTION     0.01     0.02     6.12     6  22:00        0.02
  MH_920_24            JUNCTION     0.02     0.02     3.02     6  22:00        0.02
  MH_920_25            JUNCTION     0.01     0.01     7.71     6  22:00        0.01
  MH_920_26            JUNCTION     0.01     0.01     7.01     6  22:00        0.01
  MH_920_27            JUNCTION     0.01     0.01     5.61     6  22:00        0.01
  MH_920_28            JUNCTION     0.01     0.02     6.22     6  22:00        0.02
  MH_920_29            JUNCTION     0.02     0.03     1.93     6  22:00        0.03
  MH_920_3             JUNCTION     0.01     0.01     4.71     5  22:00        0.01
  MH_920_30            JUNCTION     0.02     0.02     4.92     6  22:00        0.02
  MH_920_31            JUNCTION     0.01     0.01     7.01     2  07:15        0.01
  MH_920_32            JUNCTION     0.02     0.02     2.52     6  22:00        0.02
  MH_920_33            JUNCTION     0.03     0.03     1.13     3  22:00        0.03
  MH_920_34            JUNCTION     0.02     0.02     3.82     6  22:00        0.02
  MH_920_35            JUNCTION     0.00     0.00     3.70     0  00:00        0.00
  MH_920_36            JUNCTION     0.01     0.01     2.81     2  07:29        0.01
  MH_920_37            JUNCTION     0.01     0.01     3.31     0  07:35        0.01
  MH_920_38            JUNCTION     0.01     0.01     1.51     4  08:00        0.01
  MH_920_39            JUNCTION     0.14     1.30     0.70     4  16:57        1.27
  MH_920_4             JUNCTION     0.02     0.02     6.62     2  22:00        0.02
  MH_920_40            JUNCTION     0.34     1.80     0.70     2  10:33        1.77
  MH_920_41            JUNCTION     0.03     0.33     3.53     6  08:11        0.33
  MH_920_42            JUNCTION     0.04     0.32     2.92     6  08:14        0.32
  MH_920_43            JUNCTION     0.01     0.02     5.32     6  22:00        0.02
  MH_920_44            JUNCTION     0.04     0.36     2.16     6  08:16        0.36
  MH_920_45            JUNCTION     0.03     0.21     1.51     6  08:16        0.21
  MH_920_46            JUNCTION     1.31     3.61     0.71     2  10:33        3.57
  MH_920_47            JUNCTION     0.16     1.40     0.70     2  10:33        1.37
  MH_920_48            JUNCTION     0.18     1.58     0.48     6  21:57        1.41
  MH_920_49            JUNCTION     0.43     2.22     0.32     6  21:57        2.20
  MH_920_5             JUNCTION     0.01     0.01     8.41     6  22:00        0.01
  MH_920_50            JUNCTION     2.19     4.70     0.70     2  10:33        4.67
  MH_920_51            JUNCTION     0.01     1.04     1.14     4  17:14        0.71
  MH_920_52            JUNCTION     0.01     0.01     0.71     0  21:53        0.01
  MH_920_53            JUNCTION     0.88     3.01     0.31     2  11:59        3.00
  MH_920_54            JUNCTION     0.10     1.85     0.95     4  17:14        1.54
  MH_920_55            JUNCTION     1.41     3.61     0.31     4  17:14        3.60
  MH_920_57            JUNCTION     0.01     0.01     5.51     3  22:00        0.01
  MH_920_58            JUNCTION     0.01     0.01     6.11     3  21:34        0.01
  MH_920_59            JUNCTION     0.01     0.01     5.51     5  07:22        0.01
  MH_920_6             JUNCTION     0.00     0.00    10.30     6  22:00        0.00
  MH_920_60            JUNCTION     0.01     0.01     5.01     5  07:45        0.01
  MH_920_61            JUNCTION     0.18     0.71     5.01     6  10:12        0.71
  MH_920_62            JUNCTION     5.25     9.30     4.00     5  15:58        9.30
  MH_920_63            JUNCTION     4.45     8.50     4.00     5  15:58        8.50
  MH_920_64            JUNCTION     3.40     7.40     4.00     5  15:58        7.40
  MH_920_65            JUNCTION     2.39     6.20     4.00     5  15:58        6.20
  MH_920_66            JUNCTION     2.01     5.70     4.00     5  15:57        5.70
  MH_920_7             JUNCTION     0.02     0.02     7.72     6  22:00        0.02
  MH_920_8             JUNCTION     0.00     0.00     7.00     6  22:00        0.00
  MH_920_9             JUNCTION     1.49     4.21     3.51     5  16:50        4.20
  MH_928_105           JUNCTION     0.01     0.01     6.41     6  22:00        0.01
  MH_928_107           JUNCTION     0.01     0.01    14.61     1  07:35        0.01
  MH_928_118           JUNCTION     0.01     0.01     7.71     6  22:00        0.01
  MH_928_13            JUNCTION     0.01     0.02    18.52     6  22:00        0.02
  MH_928_18            JUNCTION     0.20     1.81     4.01     3  21:05        1.80
  MH_928_27            JUNCTION     0.01     0.01    28.11     0  21:04        0.01
  MH_928_28            JUNCTION     0.00     0.00    18.70     0  00:00        0.00
  MH_928_36            JUNCTION     0.01     0.02    12.62     3  07:45        0.02
  MH_928_43            JUNCTION     0.02     0.02    12.22     6  22:00        0.02
  MH_928_47            JUNCTION     0.01     0.01    11.81     6  22:00        0.01
  MH_928_49            JUNCTION     0.00     0.00    12.10     6  22:00        0.00
  MH_928_50            JUNCTION     0.07     0.50     4.00     3  21:05        0.50
  MH_928_53            JUNCTION     0.00     0.00    11.40     6  22:00        0.00
  MH_928_58            JUNCTION     0.01     0.01    10.71     6  22:00        0.01
  MH_928_6             JUNCTION     0.02     0.02    17.02     1  22:00        0.02
  MH_928_65            JUNCTION     0.02     0.03    11.13     6  22:00        0.03
  MH_928_66            JUNCTION     0.01     0.01    13.41     0  21:38        0.01
  MH_928_67            JUNCTION     0.04     0.05     4.85     6  22:00        0.05
  MH_928_69            JUNCTION     0.01     0.01    10.01     6  22:00        0.01
  MH_928_76            JUNCTION     0.01     0.02     9.32     6  22:00        0.02
  MH_928_81            JUNCTION     0.04     0.04    10.14     6  22:00        0.04
  MH_928_86            JUNCTION     0.02     0.03    12.33     2  21:50        0.03
  MH_928_87            JUNCTION     0.04     0.05     9.05     6  22:00        0.05
  MH_928_88            JUNCTION     0.02     0.03    11.33     6  22:00        0.03
  MH_928_89            JUNCTION     0.04     0.04     8.84     6  22:00        0.04
  MH_928_90            JUNCTION     0.03     0.04     7.64     6  22:00        0.04
  MH_928_91            JUNCTION     0.03     0.04    10.64     6  22:00        0.04
  MH_928_92            JUNCTION     0.04     0.05     5.75     1  22:00        0.05
  MH_928_98            JUNCTION     0.01     0.02    13.02     6  22:00        0.02
  MH_929_1             JUNCTION     0.01     0.01     4.31     6  22:00        0.01
  MH_929_10            JUNCTION     0.69     2.61     3.31     5  18:00        2.60
  MH_929_100           JUNCTION     0.01     0.01    14.81     6  20:05        0.01
  MH_929_101           JUNCTION     0.02     0.02    14.02     6  20:16        0.02
  MH_929_102           JUNCTION     0.03     0.04    12.74     6  20:38        0.04
  MH_929_103           JUNCTION     0.04     0.04    12.54     6  21:29        0.04
  MH_929_104           JUNCTION     0.04     0.24    11.24     4  20:30        0.24
  MH_929_105           JUNCTION     0.04     0.23     7.23     4  20:35        0.23
  MH_929_106           JUNCTION     0.04     0.19     8.89     4  20:34        0.19
  MH_929_107           JUNCTION     0.05     0.24     6.24     4  20:36        0.23
  MH_929_108           JUNCTION     0.04     0.19     5.29     4  20:40        0.19
  MH_929_109           JUNCTION     0.11     0.44     2.04     4  20:55        0.44
  MH_929_11            JUNCTION     0.06     0.42     4.92     2  02:12        0.42
  MH_929_110           JUNCTION     0.05     0.23     1.63     4  20:57        0.23
  MH_929_111           JUNCTION     0.07     0.28     0.88     4  20:59        0.28
  MH_929_112           JUNCTION     0.05     0.22     0.32     2  12:00        0.22
  MH_929_114           JUNCTION     0.01     0.01     2.11     6  22:00        0.01
  MH_929_115           JUNCTION     0.03     0.04    13.64     6  21:31        0.04
  MH_929_116           JUNCTION     0.02     0.24    12.34     2  11:26        0.24
  MH_929_118           JUNCTION     0.00     0.00    12.00     2  21:07        0.00
  MH_929_119           JUNCTION     0.01     0.01     6.11     6  22:00        0.01
  MH_929_12            JUNCTION     0.10     1.05     3.45     2  12:52        0.90
  MH_929_120           JUNCTION     0.01     0.01     9.61     6  22:00        0.01
  MH_929_121           JUNCTION     0.00     0.00     3.10     6  22:00        0.00
  MH_929_122           JUNCTION     0.01     0.01    10.11     6  22:00        0.01
  MH_929_123           JUNCTION     0.00     0.00    12.00     0  00:00        0.00
  MH_929_124           JUNCTION     0.02     0.26    13.26     4  20:29        0.26
  MH_929_125           JUNCTION     0.04     0.04    14.44     6  21:24        0.04
  MH_929_126           JUNCTION     0.00     0.00     7.30     0  00:00        0.00
  MH_929_128           JUNCTION     0.00     0.00    10.40     0  01:20        0.00
  MH_929_13            JUNCTION     0.02     0.23     3.33     5  18:00        0.20
  MH_929_130           JUNCTION     0.10     0.41     5.01     6  21:58        0.41
  MH_929_131           JUNCTION     0.46     1.62     5.02     6  07:45        1.61
  MH_929_132           JUNCTION     0.00     0.00    18.40     4  20:00        0.00
  MH_929_133           JUNCTION     1.03     2.92     5.02     5  17:35        2.91
  MH_929_134           JUNCTION     0.03     0.03    17.83     6  20:44        0.03
  MH_929_135           JUNCTION     0.03     0.03    17.23     6  21:03        0.03
  MH_929_136           JUNCTION     0.03     0.04    15.64     6  21:21        0.04
  MH_929_137           JUNCTION     0.02     0.24    14.94     4  20:22        0.24
  MH_929_138           JUNCTION     1.55     3.82     5.02     5  17:23        3.81
  MH_929_14            JUNCTION     0.01     0.01    15.21     6  22:00        0.01
  MH_929_140           JUNCTION     0.00     0.00    11.30     0  00:38        0.00
  MH_929_142           JUNCTION     0.01     0.01     9.81     6  22:00        0.01
  MH_929_143           JUNCTION     0.01     0.01    11.21     6  22:00        0.01
  MH_929_144           JUNCTION     0.02     0.03    18.43     6  22:00        0.03
  MH_929_145           JUNCTION     0.01     0.01    18.21     6  22:00        0.01
  MH_929_146           JUNCTION     0.01     0.01     8.91     6  22:00        0.01
  MH_929_147           JUNCTION     0.01     0.01    12.01     4  21:23        0.01
  MH_929_148           JUNCTION     0.01     0.01     7.51     0  22:00        0.01
  MH_929_149           JUNCTION     1.94     4.42     5.02     5  17:23        4.41
  MH_929_15            JUNCTION     0.05     0.36     5.46     2  02:09        0.36
  MH_929_150           JUNCTION     0.01     0.01     9.01     2  07:54        0.01
  MH_929_151           JUNCTION     0.01     0.01    19.11     5  21:14        0.01
  MH_929_152           JUNCTION     0.02     0.02    19.42     6  22:00        0.02
  MH_929_153           JUNCTION     0.00     0.00    13.00     0  00:00        0.00
  MH_929_154           JUNCTION     0.01     0.01    17.31     6  22:00        0.01
  MH_929_155           JUNCTION     0.00     0.25    16.75     2  11:19        0.24
  MH_929_158           JUNCTION     0.62     2.02     5.02     6  09:14        2.02
  MH_929_16            JUNCTION     0.08     0.50     5.10     2  02:11        0.50
  MH_929_161           JUNCTION     2.40     5.02     5.02     5  22:27        5.01
  MH_929_162           JUNCTION     0.01     0.02    13.12     6  22:00        0.02
  MH_929_164           JUNCTION     0.02     0.02    11.22     3  22:00        0.02
  MH_929_165           JUNCTION     0.01     0.01     7.61     6  21:42        0.01
  MH_929_166           JUNCTION     0.04     0.60    10.60     2  11:11        0.58
  MH_929_167           JUNCTION     0.28     1.80    10.60     2  11:10        1.78
  MH_929_168           JUNCTION     0.73     2.70    10.60     2  11:10        2.68
  MH_929_169           JUNCTION     0.01     0.01    16.81     6  22:00        0.01
  MH_929_17            JUNCTION     0.01     0.01    16.21     0  07:18        0.01
  MH_929_171           JUNCTION     2.39     5.02     5.02     5  17:23        5.01
  MH_929_174           JUNCTION     0.00     0.00    11.00     0  00:24        0.00
  MH_929_175           JUNCTION     1.03     2.92     5.02     5  17:37        2.91
  MH_929_176           JUNCTION     0.00     0.00    14.20     3  22:00        0.00
  MH_929_177           JUNCTION     0.03     0.03    17.23     6  22:00        0.03
  MH_929_18            JUNCTION     0.00     0.00    26.30     0  09:42        0.00
  MH_929_180           JUNCTION     1.53     4.00    10.60     2  11:11        3.98
  MH_929_181           JUNCTION     0.01     0.01    13.91     5  22:00        0.01
  MH_929_182           JUNCTION     0.00     0.01    14.81     6  22:00        0.01
  MH_929_184           JUNCTION     2.98     5.71     5.01     5  17:23        5.71
  MH_929_188           JUNCTION     0.00     0.01    12.51     2  07:47        0.01
  MH_929_19            JUNCTION     0.01     0.01    10.31     6  22:00        0.01
  MH_929_190           JUNCTION     0.01     0.01    13.11     2  07:29        0.01
  MH_929_196           JUNCTION     2.40     5.10    10.60     2  11:10        5.08
  MH_929_198           JUNCTION     4.17     7.01     5.01     5  21:46        7.01
  MH_929_199           JUNCTION     5.07     8.90     6.00     0  00:00        7.91
  MH_929_2             JUNCTION     0.00     0.00    12.10     0  22:00        0.00
  MH_929_20            JUNCTION     0.55     2.41     3.51     1  19:16        2.40
  MH_929_201           JUNCTION     0.02     0.02    17.32     6  22:00        0.02
  MH_929_204           JUNCTION     0.01     0.01     5.71     0  22:00        0.01
  MH_929_205           JUNCTION     0.00     0.01    14.41     6  22:00        0.01
  MH_929_206           JUNCTION     0.00     0.00    15.50     6  22:00        0.00
  MH_929_207           JUNCTION     0.00     0.00    14.00     0  22:00        0.00
  MH_929_209           JUNCTION     2.03     5.70     4.00     3  21:05        5.70
  MH_929_21            JUNCTION     0.37     2.00     7.80     6  07:42        1.99
  MH_929_211           JUNCTION     0.03     0.03    17.33     1  22:00        0.03
  MH_929_212           JUNCTION     0.01     0.01     6.51     5  22:00        0.01
  MH_929_213           JUNCTION     0.01     0.01     7.61     5  21:56        0.01
  MH_929_214           JUNCTION     1.10     4.20     4.00     3  21:05        4.20
  MH_929_217           JUNCTION     0.32     1.91    10.61     2  11:10        1.88
  MH_929_218           JUNCTION     0.02     0.03    15.93     0  07:09        0.03
  MH_929_22            JUNCTION     1.26     3.60     7.80     6  07:40        3.59
  MH_929_221           JUNCTION     1.13     4.20     4.00     3  21:05        4.20
  MH_929_223           JUNCTION     0.36     1.91    10.61     2  11:11        1.88
  MH_929_224           JUNCTION     0.02     0.02    15.62     0  07:17        0.02
  MH_929_226           JUNCTION     0.02     0.03    12.83     2  07:23        0.03
  MH_929_227           JUNCTION     0.02     0.03    11.03     0  22:00        0.03
  MH_929_23            JUNCTION     0.29     1.80     7.80     6  07:41        1.79
  MH_929_230           JUNCTION     0.33     2.41     4.01     3  21:05        2.40
  MH_929_239           JUNCTION     0.63     3.21     4.01     3  21:05        3.20
  MH_929_24            JUNCTION     0.02     0.30     7.80     6  07:40        0.29
  MH_929_240           JUNCTION     0.01     0.01    15.41     3  22:00        0.01
  MH_929_25            JUNCTION     0.01     0.01    14.71     2  07:45        0.01
  MH_929_26            JUNCTION     0.06     0.45     6.05     2  02:02        0.45
  MH_929_27            JUNCTION     0.00     0.00    19.10     0  00:00        0.00
  MH_929_28            JUNCTION     0.00     0.01    11.51     1  21:59        0.01
  MH_929_29            JUNCTION     0.01     0.01    13.01     6  22:00        0.01
  MH_929_3             JUNCTION     0.04     0.04    15.24     6  22:00        0.04
  MH_929_30            JUNCTION     0.01     0.01     8.01     2  22:00        0.01
  MH_929_32            JUNCTION     0.00     0.00    18.80     0  00:00        0.00
  MH_929_33            JUNCTION     0.00     0.00    16.90     0  00:00        0.00
  MH_929_34            JUNCTION     0.01     0.01    14.11     6  22:00        0.01
  MH_929_35            JUNCTION     0.01     0.01    12.91     4  21:31        0.01
  MH_929_36            JUNCTION     0.05     0.35     6.75     2  02:02        0.35
  MH_929_37            JUNCTION     0.01     0.01    12.81     6  22:00        0.01
  MH_929_38            JUNCTION     0.01     0.02    11.42     6  07:52        0.02
  MH_929_39            JUNCTION     0.01     0.02    10.12     3  22:00        0.02
  MH_929_4             JUNCTION     0.00     0.00    25.30     3  16:05        0.00
  MH_929_40            JUNCTION     0.01     0.02     7.02     0  21:29        0.02
  MH_929_44            JUNCTION     0.03     1.30     7.20     6  07:52        0.87
  MH_929_46            JUNCTION     0.02     0.32     6.22     6  08:05        0.32
  MH_929_47            JUNCTION     0.00     0.00    20.00     0  07:40        0.00
  MH_929_48            JUNCTION     0.00     0.00    18.10     0  08:03        0.00
  MH_929_49            JUNCTION     0.00     0.00    17.80     6  21:33        0.00
  MH_929_5             JUNCTION     0.07     0.42     4.72     2  02:17        0.42
  MH_929_50            JUNCTION     0.01     0.01    15.91     6  21:43        0.01
  MH_929_51            JUNCTION     0.04     0.35     7.75     2  01:58        0.35
  MH_929_52            JUNCTION     0.05     0.39     8.59     2  01:57        0.39
  MH_929_53            JUNCTION     0.04     0.37     9.37     2  01:55        0.37
  MH_929_54            JUNCTION     0.04     0.42    10.22     2  01:50        0.41
  MH_929_56            JUNCTION     0.00     0.00    21.00     6  22:00        0.00
  MH_929_57            JUNCTION     0.03     0.41     5.41     6  08:05        0.40
  MH_929_58            JUNCTION     0.00     0.02     7.02     6  07:53        0.01
  MH_929_59            JUNCTION     0.01     0.01    15.21     0  21:57        0.01
  MH_929_6             JUNCTION     0.83     2.81     3.31     2  12:54        2.80
  MH_929_63            JUNCTION     0.03     0.32     4.92     6  08:10        0.32
  MH_929_64            JUNCTION     0.01     0.01     9.01     6  22:00        0.01
  MH_929_65            JUNCTION     0.01     0.02     7.82     6  22:00        0.02
  MH_929_66            JUNCTION     0.02     0.02     6.62     6  22:00        0.02
  MH_929_67            JUNCTION     0.02     0.02    13.32     6  22:00        0.02
  MH_929_68            JUNCTION     0.02     0.02    14.12     6  22:00        0.02
  MH_929_69            JUNCTION     0.00     0.01    19.61     6  22:00        0.01
  MH_929_7             JUNCTION     0.05     0.30     4.10     2  02:14        0.30
  MH_929_70            JUNCTION     0.03     0.04    10.84     6  22:00        0.04
  MH_929_71            JUNCTION     0.04     0.05    10.86     6  22:00        0.05
  MH_929_72            JUNCTION     0.01     0.01    17.71     6  22:00        0.01
  MH_929_73            JUNCTION     0.01     0.01    16.51     6  22:00        0.01
  MH_929_74            JUNCTION     0.01     0.02    15.22     6  22:00        0.02
  MH_929_75            JUNCTION     0.02     0.02    11.02     6  22:00        0.02
  MH_929_77            JUNCTION     0.01     0.01    10.81     0  21:40        0.01
  MH_929_78            JUNCTION     0.00     0.00    16.40     2  22:00        0.00
  MH_929_8             JUNCTION     0.00     0.01     5.81     0  21:57        0.01
  MH_929_80            JUNCTION     0.00     0.00    18.90     0  00:00        0.00
  MH_929_81            JUNCTION     0.01     0.01     9.51     6  22:00        0.01
  MH_929_82            JUNCTION     0.01     0.01    17.91     6  22:00        0.01
  MH_929_84            JUNCTION     0.01     0.01    17.11     6  22:00        0.01
  MH_929_85            JUNCTION     0.01     0.02     8.02     6  22:00        0.02
  MH_929_86            JUNCTION     0.02     0.02     6.32     6  22:00        0.02
  MH_929_87            JUNCTION     0.01     0.02    15.52     6  22:00        0.02
  MH_929_88            JUNCTION     0.03     0.03    13.93     6  22:00        0.03
  MH_929_89            JUNCTION     0.01     0.02    13.32     6  22:00        0.02
  MH_929_9             JUNCTION     0.22     1.43     3.33     2  12:55        1.40
  MH_929_90            JUNCTION     0.04     0.05    10.55     6  22:00        0.05
  MH_929_91            JUNCTION     0.03     0.03     9.93     6  22:00        0.03
  MH_929_92            JUNCTION     0.03     0.03     8.33     6  22:00        0.03
  MH_929_93            JUNCTION     0.00     0.00    17.00     2  21:11        0.00
  MH_929_99            JUNCTION     0.00     0.00    15.90     3  20:00        0.00
  MH_930_1             JUNCTION     2.98     7.56    -1.14     6  23:59        7.55
  MH_930_100           JUNCTION     0.02     0.03    10.63     0  21:32        0.03
  MH_930_101           JUNCTION     0.05     2.60    11.30     1  20:34        1.54
  MH_930_102           JUNCTION     0.01     0.01     8.31     0  21:55        0.01
  MH_930_103           JUNCTION     0.01     0.02     7.72     0  08:00        0.02
  MH_930_104           JUNCTION     0.02     0.02    11.42     0  21:33        0.02
  MH_930_105           JUNCTION     0.02     0.02    12.72     3  07:25        0.02
  MH_930_106           JUNCTION     0.02     0.03    12.43     1  21:59        0.03
  MH_930_107           JUNCTION     0.01     0.01    12.71     5  22:00        0.01
  MH_930_108           JUNCTION     0.01     0.02    11.42     6  22:00        0.02
  MH_930_109           JUNCTION     0.03     0.04     9.24     6  22:00        0.04
  MH_930_110           JUNCTION     0.02     0.02     6.22     6  22:00        0.02
  MH_930_111           JUNCTION     0.02     0.03    11.73     0  07:14        0.03
  MH_930_112           JUNCTION     0.03     0.04    10.04     6  22:00        0.04
  MH_930_113           JUNCTION     0.02     0.03    11.43     0  07:25        0.03
  MH_930_114           JUNCTION     0.03     0.43     8.43     4  22:08        0.43
  MH_930_115           JUNCTION     0.03     0.04     9.04     6  22:00        0.04
  MH_930_116           JUNCTION     0.03     0.54     7.14     2  21:29        0.52
  MH_930_117           JUNCTION     0.06     0.07     8.67     0  07:51        0.07
  MH_930_118           JUNCTION     0.05     0.07     8.27     0  08:05        0.07
  MH_930_119           JUNCTION     0.05     0.06     8.06     6  21:24        0.06
  MH_930_120           JUNCTION     0.05     0.06     7.96     6  21:29        0.06
  MH_930_121           JUNCTION     0.01     0.01     9.81     0  21:26        0.01
  MH_930_122           JUNCTION     0.01     0.01     6.01     6  21:46        0.01
  MH_930_123           JUNCTION     0.02     0.06     4.56     2  21:20        0.03
  MH_930_124           JUNCTION     0.09     1.29     3.79     2  21:18        0.99
  MH_930_125           JUNCTION     0.03     0.04     8.14     6  22:00        0.04
  MH_930_126           JUNCTION     0.03     1.02     6.52     2  21:18        0.95
  MH_930_127           JUNCTION     0.05     0.06     6.86     6  21:33        0.06
  MH_930_128           JUNCTION     0.02     0.02     9.02     6  22:00        0.02
  MH_930_129           JUNCTION     0.01     0.01     3.91     6  21:51        0.01
  MH_930_130           JUNCTION     0.02     0.03     8.33     6  22:00        0.03
  MH_930_131           JUNCTION     0.05     0.27     5.57     2  21:29        0.27
  MH_930_132           JUNCTION     0.07     1.67     5.57     2  21:28        1.66
  MH_930_133           JUNCTION     0.16     2.33     4.73     2  21:06        2.09
  MH_930_134           JUNCTION     1.58     4.66     3.86     2  21:19        4.37
  MH_930_135           JUNCTION     2.29     5.79     3.79     2  21:18        5.50
  MH_930_136           JUNCTION     0.01     0.01    16.51     6  22:00        0.01
  MH_930_137           JUNCTION     0.02     0.02    12.12     6  22:00        0.02
  MH_930_138           JUNCTION     0.02     0.02     9.32     6  22:00        0.02
  MH_930_139           JUNCTION     0.01     0.01    17.21     2  20:58        0.01
  MH_930_140           JUNCTION     0.95     3.56     3.86     2  21:19        3.27
  MH_930_141           JUNCTION     2.70     6.34     3.74     2  21:18        6.10
  MH_930_142           JUNCTION     0.01     0.01    15.61     0  22:00        0.01
  MH_930_143           JUNCTION     0.01     0.01    15.01     6  22:00        0.01
  MH_930_144           JUNCTION     0.01     0.01    12.21     6  22:00        0.01
  MH_930_145           JUNCTION     0.03     0.04     7.84     6  22:00        0.04
  MH_930_146           JUNCTION     0.02     0.03     9.13     6  22:00        0.03
  MH_930_147           JUNCTION     0.04     0.04     7.24     6  22:00        0.04
  MH_930_148           JUNCTION     0.44     2.45     3.85     2  21:19        2.30
  MH_930_149           JUNCTION     0.00     0.01    15.61     6  22:00        0.01
  MH_930_150           JUNCTION     3.31     7.06     3.66     2  21:18        6.90
  MH_930_151           JUNCTION     0.00     0.01    14.31     6  22:00        0.01
  MH_930_152           JUNCTION     0.32     2.14     3.84     2  21:19        2.04
  MH_930_153           JUNCTION     0.01     0.01     7.51     3  21:56        0.01
  MH_930_154           JUNCTION     0.01     0.01    19.21     6  22:00        0.01
  MH_930_155           JUNCTION     0.03     0.03     6.43     6  22:00        0.03
  MH_930_156           JUNCTION     0.01     0.01    17.21     6  22:00        0.01
  MH_930_157           JUNCTION     0.00     0.00    15.40     0  21:57        0.00
  MH_930_158           JUNCTION     0.01     0.01    13.61     6  22:00        0.01
  MH_930_159           JUNCTION     0.02     0.02    10.52     6  22:00        0.02
  MH_930_160           JUNCTION     0.01     0.02    12.32     6  22:00        0.02
  MH_930_161           JUNCTION     0.08     1.33     3.93     2  21:14        1.15
  MH_930_162           JUNCTION     0.01     0.01    19.71     1  21:45        0.01
  MH_930_163           JUNCTION     0.01     0.01    19.01     0  21:48        0.01
  MH_930_164           JUNCTION     0.01     0.02    16.12     6  22:00        0.02
  MH_930_165           JUNCTION     0.01     0.01    15.41     6  22:00        0.01
  MH_930_166           JUNCTION     0.03     0.04     5.24     2  08:05        0.04
  MH_930_167           JUNCTION     0.02     0.02    10.12     6  21:50        0.02
  MH_930_168           JUNCTION     0.07     0.08     9.28     6  22:00        0.08
  MH_930_169           JUNCTION     0.00     0.00    17.10     0  10:06        0.00
  MH_930_170           JUNCTION     0.02     0.03     9.23     6  22:00        0.03
  MH_930_171           JUNCTION     0.01     0.01    11.41     6  20:24        0.01
  MH_930_172           JUNCTION     0.01     0.02    11.12     6  21:42        0.02
  MH_930_173           JUNCTION     0.05     0.06     6.86     6  22:00        0.06
  MH_930_174           JUNCTION     0.02     0.03     6.63     6  22:00        0.03
  MH_930_175           JUNCTION     0.03     0.03     4.83     3  22:00        0.03
  MH_930_176           JUNCTION     0.01     0.01     6.41     6  22:00        0.01
  MH_930_177           JUNCTION     0.01     0.01     7.61     0  22:00        0.01
  MH_930_178           JUNCTION     0.01     0.05     3.75     2  21:20        0.03
  MH_930_179           JUNCTION     5.20     8.92     3.52     2  21:18        8.90
  MH_930_2             JUNCTION     2.81     7.37    -1.13     6  23:59        7.35
  MH_930_3             JUNCTION     0.01     0.01     1.41     1  21:36        0.01
  MH_930_4             JUNCTION     0.01     0.01     4.51     6  07:42        0.01
  MH_930_46            JUNCTION     1.21     3.71    -3.39     1  20:20        3.70
  MH_930_47            JUNCTION     0.65     2.81    -3.39     4  21:48        2.80
  MH_930_48            JUNCTION     0.70     2.90    -3.40     3  21:24        2.90
  MH_930_5             JUNCTION     0.00     0.00    11.00     2  21:50        0.00
  MH_930_6             JUNCTION     0.00     0.01     8.61     6  22:00        0.01
  MH_930_96            JUNCTION     0.02     0.03     5.63     6  22:00        0.03
  MH_930_97            JUNCTION     0.01     0.02     6.12     0  21:04        0.02
  MH_930_98            JUNCTION     0.03     0.03     4.03     6  22:00        0.03
  MH_930_99            JUNCTION     0.01     0.02     2.32     6  22:00        0.02
  OFALL-12             OUTFALL      5.00     5.00    10.00     0  00:00        5.00
  WW-147_BC            OUTFALL      0.00     0.00   -10.70     0  00:00        0.00
  WW-232_OUTFALL       OUTFALL      0.00     0.01    -5.99     6  22:03        0.01
  WW-1002              STORAGE      0.01     3.00     8.30     0  00:00        1.20
  WW-1003              STORAGE      0.01     3.00     4.60     0  00:00        0.72
  WW-147               STORAGE      6.82    10.00    -0.70     0  00:00        9.82
  WW-220               STORAGE      7.32    10.00    -3.40     0  19:45       10.00
  WW-221               STORAGE      8.50    13.10     7.50     2  22:03       13.09
  WW-222               STORAGE      3.00     3.00     8.00     0  00:00        3.00
  WW-223               STORAGE      6.18     9.50     4.10     6  17:20        9.49
  WW-224               STORAGE      2.56     3.50    -0.80     1  11:04        3.50
  WW-225               STORAGE     10.73    14.51     3.51     2  21:18       14.50
  WW-226               STORAGE      2.80     5.10     3.40     0  00:00        5.00
  WW-227               STORAGE      6.40     9.10     7.80     6  07:42        9.09
  WW-228               STORAGE      5.25     8.00    10.60     2  11:11        7.98
  WW-229               STORAGE      4.83     7.50     0.70     2  10:33        7.47
  WW-230               STORAGE      6.81     9.02     0.32     4  17:14        9.00
  WW-231               STORAGE      6.95    11.00     4.00     2  01:16       11.00
  WW-232               STORAGE      7.18    10.01     5.01     6  22:03       10.01
  WW-242               STORAGE      6.36     8.25     7.25     7  00:00        8.25
  WW-243               STORAGE      7.67    13.50    14.80     5  21:54       13.46
  WW-246               STORAGE      4.80     7.66     5.96     7  00:00        7.66
  WW-247               STORAGE      5.45    10.06    -1.14     6  23:59       10.06
  WW-250               STORAGE      0.00     2.70     0.50     0  00:00        0.65
  WW-251               STORAGE      4.48     5.28    -1.22     7  00:00        5.28
  WW-258               STORAGE      0.00     3.00     8.40     0  00:00        0.00
  
  
  *******************
  Node Inflow Summary
  *******************
  
  -------------------------------------------------------------------------------------------------
                                  Maximum  Maximum                  Lateral       Total        Flow
                                  Lateral    Total  Time of Max      Inflow      Inflow     Balance
                                   Inflow   Inflow   Occurrence      Volume      Volume       Error
  Node                 Type           GPM      GPM  days hr:min    10^6 gal    10^6 gal     Percent
  -------------------------------------------------------------------------------------------------
  J-1002-OUT           JUNCTION      0.00    50.38     0  00:00           0     0.00552       0.771
  J-1003-OUT           JUNCTION      0.00    48.62     0  00:00           0     0.00295      -0.034
  J-147-OUT            JUNCTION      0.00  2016.93     0  00:00           0     0.00374      -1.060
  J-220-OUT            JUNCTION      0.00   486.17     0  19:45           0       0.127       0.142
  J-221-OUT            JUNCTION      0.00  1895.27     2  22:03           0      0.0779      -0.085
  J-222-OUT            JUNCTION      0.00     0.00     0  00:00           0           0       0.000 gal
  J-223-OUT            JUNCTION      0.00   370.72     6  17:23           0     0.00976      -0.968
  J-224-OUT            JUNCTION      0.00   517.57     0  00:00           0      0.0171      -1.394
  J-225-OUT            JUNCTION      0.00  1589.24     1  19:17           0       0.246      -0.139
  J-226-OUT            JUNCTION      0.00  7600.97     0  00:00           0       0.237       0.023
  J-227-OUT            JUNCTION      0.00   241.34     6  07:44           0     0.00881      -0.148
  J-228-OUT            JUNCTION      0.00   309.41     2  11:11           0      0.0193      -0.278
  J-229-OUT            JUNCTION      0.00  2604.46     0  00:00           0      0.0227      -2.734
  J-230-OUT            JUNCTION      0.00  1237.36     1  01:34           0       0.181      -0.234
  J-231-OUT            JUNCTION      0.00   655.79     2  01:17           0      0.0329      -0.348
  J-232-OUT            JUNCTION      0.00  2071.89     0  00:00           0     0.00206      -0.276
  J-242-OUT            JUNCTION      0.00     0.00     0  00:00           0           0       0.000 gal
  J-243-OUT            JUNCTION      0.00   240.06     5  21:54           0       0.013      -0.090
  J-246-OUT            JUNCTION      0.00  1970.52     0  00:00           0     0.00154      -2.301
  J-247-OUT            JUNCTION      0.00     0.00     0  00:00           0           0       0.000 gal
  J-250-OUT            JUNCTION      0.00   589.02     0  00:00           0      0.0156       0.110
  J-251-OUT            JUNCTION      0.00     0.00     0  00:00           0           0       0.000 gal
[...]
  GM-825_2                    0.01      0.01      0.17      0.01         0.01
  GM-825_3                    0.17      0.17      0.31      0.03         0.01
  GM-825_4                    0.01      0.01      0.17      0.03         0.01
  GM-825_5                    0.34      0.34      0.40      0.01         0.01
  GM-825_7                    0.01      0.01      0.34      0.01         0.01
  GM-825_8                   11.79     11.79    127.04      0.01         0.01
  GM-825_9                    0.01      0.01     11.79      0.01         0.01
  GM-919_109                 97.05     97.05    121.95      0.01         0.01
  GM-919_111                 95.81     95.81     97.05      0.01         0.01
  GM-919_119                 73.91     73.91     97.05      0.01         0.01
  GM-919_127                 63.57     63.57     73.91      0.01         0.01
  GM-919_13                   0.01      0.01      7.05      0.01         0.01
  GM-919_134                  0.01      0.01      7.03      0.01         0.01
  GM-919_135                  7.02      7.02     28.54      0.01         0.01
  GM-919_136                 70.03     70.03     95.81      0.01         0.01
  GM-919_137                 46.47     46.47     63.57      0.01         0.01
  GM-919_138                 28.54     28.54     46.47      0.01         0.01
  GM-919_141                 48.80     48.80     63.57      0.01         0.01
  GM-919_148                 54.46     54.46     70.03      0.01         0.01
  GM-919_149                 32.79     32.79     48.80      0.01         0.01
  GM-919_156                 26.62     26.62     32.79      0.01         0.01
  GM-919_158                 41.70     41.70     54.46      0.01         0.01
  GM-919_161                 28.51     28.51     41.70      0.01         0.01
  GM-919_185                  0.01      0.01      6.70      0.01         0.01
  GM-919_188                  0.01      0.01     13.09      0.01         0.01
  GM-919_190                 42.78     42.78    166.24      0.01         0.01
  GM-919_191                  6.70      6.70     13.09      0.01         0.01
  GM-919_192                  0.01      0.01     13.09      0.01         0.01
  GM-919_196                  0.01      0.01     86.28      0.01         0.01
  GM-919_197                  0.01      0.01      3.36      0.01         0.01
  GM-919_200                 73.92     73.92     83.30      0.01         0.01
  GM-919_201                 83.30     83.30     97.64      0.01         0.01
  GM-919_202                 39.21     39.21     73.93      0.01         0.01
  GM-919_203                 15.88     15.88     39.21      0.01         0.01
  GM-919_204                  3.36      3.36     24.34      0.01         0.01
  GM-919_207                  0.01      0.01      3.36      0.01         0.01
  GM-919_212                  0.01      0.01     46.05      0.01         0.01
  GM-919_214                  0.01      0.01     24.34      0.01         0.01
  GM-919_215                  0.05      0.05     86.28      0.01         0.01
  GM-919_221                126.30    126.30    144.83      0.01         0.01
  GM-919_223                 40.76     40.76    160.51      0.01         0.01
  GM-919_224                  0.01      0.01     40.77      0.01         0.01
  GM-919_228                126.30    126.30    161.30      0.01         0.01
  GM-919_229                 76.21     76.21    137.55      0.01         0.01
  GM-919_230                 71.55     71.55     76.21      0.01         0.01
  GM-919_233                 26.75     26.75     71.55      0.01         0.01
  GM-919_234                  0.01      0.01     26.75      0.01         0.01
  GM-919_29                   7.04      7.04     26.61      0.01         0.01
  GM-919_31                   0.01      0.01      7.05      0.01         0.01
  GM-919_32                   0.01      0.01      7.05      0.01         0.01
  GM-919_41                  63.42     63.42     78.98      0.01         0.01
  GM-919_43                  26.61     26.61     30.72      0.01         0.01
  GM-919_44                  30.72     30.72     46.22      0.01         0.01
  GM-919_48                   0.01      0.01     11.00      0.01         0.01
  GM-919_54                   0.01      0.01     46.22      0.01         0.01
  GM-919_55                  46.22     46.22     73.79      0.01         0.01
  GM-919_57                  73.79     73.79    167.99      0.01         0.01
  GM-919_59                  78.98     78.98    107.34      0.01         0.01
  GM-919_60                 110.83    110.83    167.78      0.01         0.01
  GM-919_61                 107.34    107.34    110.83      0.01         0.01
  GM-919_64                  11.00     11.00     52.54      0.01         0.01
  GM-919_65                   0.01      0.01     15.06      0.01         0.01
  GM-919_71                 148.82    148.82    167.99      0.01         0.01
  GM-919_75                   0.01      0.01     50.31      0.01         0.01
  GM-919_78                   0.01      0.01     20.61      0.01         0.01
  GM-919_79                  20.61     20.61    134.34      0.01         0.01
  GM-919_81                 134.34    134.34    150.70      0.01         0.01
  GM-919_93                   0.01      0.01     20.61      0.01         0.01
  GM-919_96                 121.95    121.95    134.34      0.01         0.01
  GM-920_1                  126.95    126.95    167.96      0.01         0.01
  GM-920_10                  86.77     86.77     90.41      0.01         0.01
  GM-920_11                  12.56     12.56     86.77      0.01         0.01
  GM-920_12                   0.01      0.01     12.56      0.01         0.01
  GM-920_15                  85.42     85.42     86.77      0.01         0.06
  GM-920_16                  71.51     71.51     85.42      0.01         0.01
  GM-920_17                  44.97     44.97     71.51      0.01         0.01
  GM-920_18                   1.66      1.66     44.97      0.01         0.01
  GM-920_19                   0.01      0.01      1.66      0.01         0.01
  GM-920_2                  100.99    100.99    126.95      0.01         0.01
  GM-920_3                    0.01      0.01    100.99      0.01         0.01
  GM-920_33                   0.01      0.01      5.57      0.01         0.01
  GM-920_37                   0.01      0.01     39.15      0.01         0.01
  GM-920_38                   0.01      0.01      5.57      0.01         0.01
  GM-920_39                   5.57      5.57     39.15      0.01         0.01
  GM-920_40                  39.15     39.15     85.97      0.01         0.01
  GM-920_45                   0.01      0.01     41.43      0.01         0.01
  GM-920_46                  85.97     85.97    131.04      0.01         0.01
  GM-920_47                   9.01      9.01     85.97      0.01         0.01
  GM-920_48                   6.11      6.11     29.85      0.01         0.01
  GM-920_49                  29.85     29.85     65.70      0.01         0.01
  GM-920_50                 135.93    135.93    166.62      0.01         0.01
  GM-920_51                   0.20      0.20      4.81      0.01         0.01
  GM-920_52                   0.01      0.01      9.01      0.01         0.01
  GM-920_53                  65.69     65.69     98.45      0.01         0.01
  GM-920_54                   9.13      9.13    123.82      0.01         0.01
  GM-920_55                  83.73     83.73    168.00      0.01         0.01
  GM-920_60                   0.01      0.01     34.65      0.01         0.01
  GM-920_61                  34.65     34.65     53.93      0.01         0.01
  GM-920_62                 167.89    167.89    168.00      0.01         0.01
  GM-920_63                 159.62    159.62    167.95      0.01         0.01
  GM-920_64                 137.90    137.90    159.62      0.01         0.01
  GM-920_65                 116.45    116.45    137.90      0.01         0.01
  GM-920_66                 100.27    100.27    116.45      0.01         0.01
  GM-920_9                   90.40     90.40    100.99      0.01         0.01
  GM-928_18                  16.47     16.47     49.40      0.01         0.01
  GM-928_50                   0.01      0.01     16.47      0.01         0.01
  GM-929_10                  32.30     32.30     35.98      0.01         0.17
  GM-929_112                  0.01      0.01      6.11      0.01         0.01
  GM-929_12                  10.85     10.85     57.55      0.01         0.01
  GM-929_13                   0.01      0.01     10.86      0.01         0.01
  GM-929_130                  0.01      0.01     49.14      0.01         0.01
  GM-929_131                 49.14     49.14     71.33      0.01         0.01
  GM-929_133                 71.33     71.33     92.00      0.01         0.01
  GM-929_138                 92.00     92.00    102.10      0.01         0.01
  GM-929_148                  0.01      0.01    102.10      0.01         0.01
  GM-929_149                102.10    102.10    115.65      0.01         0.01
  GM-929_158                 53.93     53.93     71.34      0.01         0.01
  GM-929_161                115.62    115.65    115.62      0.01        34.18
  GM-929_165                  0.01      0.01    132.11      0.01         0.01
  GM-929_166                  0.01      0.01     23.07      0.01         0.01
  GM-929_167                 23.07     23.07     77.39      0.01         0.01
  GM-929_168                 77.39     77.39    101.24      0.01         0.01
  GM-929_171                115.62    115.62    132.11      0.01         0.01
  GM-929_174                  0.01      0.01    115.62      0.01         0.01
  GM-929_175                 71.34     71.34    152.05      0.01         0.01
  GM-929_176                  0.01      0.01      1.83      0.01         0.01
  GM-929_180                101.24    101.24    127.36      0.01         0.01
  GM-929_181                  0.01      0.01     30.26      0.01         0.01
  GM-929_184                132.11    132.11    152.06      0.01         0.01
  GM-929_188                  0.01      0.01    132.11      0.01         0.01
  GM-929_19                   0.01      0.01     23.57      0.01         0.01
  GM-929_196                121.94    121.94    167.93      0.01         0.01
  GM-929_198                152.06    152.06    168.00      0.01         0.01
  GM-929_199                168.00    168.00    168.00      0.01         0.01
  GM-929_20                  59.91     59.91     85.42      0.01         0.01
  GM-929_204                  0.01      0.01    152.06      0.01         0.01
  GM-929_207                  0.01      0.01     36.97      0.01         0.01
  GM-929_209                100.26    100.28    100.27      2.41        21.52
  GM-929_21                  34.49     34.49     92.30      0.01         0.01
  GM-929_214                 73.95     73.95    100.28      0.01         0.01
  GM-929_217                 26.53     26.53    127.36      0.01         0.01
  GM-929_22                  92.30     92.30    167.95      0.01         0.01
  GM-929_221                 73.94     73.95     73.94      1.97        14.93
  GM-929_223                 26.50     26.53     26.53      0.83         4.22
  GM-929_227                  0.01      0.01     26.53      0.01         0.01
  GM-929_23                  23.57     23.57     34.49      0.01         0.01
  GM-929_230                 32.89     32.89     49.40      0.01         0.01
  GM-929_239                 49.40     49.40     73.95      0.01         0.01
  GM-929_24                   0.01      0.01     92.30      0.01         0.01
  GM-929_240                  0.01      0.01     32.89      0.01         0.01
  GM-929_28                   0.01      0.01     23.57      0.01         0.01
  GM-929_30                   0.01      0.01     34.49      0.01         0.01
  GM-929_44                   0.01      0.62      0.01      1.21         0.01
  GM-929_58                   0.01      0.01      0.62      0.01         0.01
  GM-929_6                   35.98     35.98    142.12      0.01         0.01
  GM-929_9                    0.01      0.01     32.30      0.01         0.01
  GM-930_1                   97.59     97.59    127.04      0.01         0.01
  GM-930_101                  0.01      3.48      0.01      3.81         0.01
  GM-930_116                  0.01      0.01      0.28      0.01         0.01
  GM-930_123                  0.01      0.01      9.21      0.01         0.01
  GM-930_124                  5.67      5.67     98.82      0.01         0.01
  GM-930_126                  0.28      0.28      0.75      0.01         0.01
  GM-930_129                  0.01      0.01     91.76      0.01         0.01
  GM-930_131                  0.01      0.01      0.75      0.01         0.01
  GM-930_132                  0.75      0.75      9.21      0.01         0.01
  GM-930_133                  9.21      9.21     91.76      0.01         0.01
  GM-930_134                 88.48     88.48     96.55      0.01         0.01
  GM-930_135                 96.55     96.55    101.07      0.01         0.01
  GM-930_140                 72.85     72.85     88.49      0.01         0.01
  GM-930_141                101.07    101.07    117.85      0.01         0.01
  GM-930_148                 45.86     45.86     77.84      0.01         0.01
  GM-930_150                117.85    117.85    144.83      0.01         0.01
  GM-930_152                 35.97     35.97     45.87      0.01         0.01
  GM-930_161                  3.57      3.57     35.97      0.01         0.01
  GM-930_175                  0.01      0.01     35.98      0.01         0.01
  GM-930_178                  0.01      0.01      3.57      0.01         0.01
  GM-930_179                120.82    120.82    161.30      0.01         0.01
  GM-930_2                   87.30     87.30     97.59      0.01         0.01
  GM-930_3                    0.01      0.01     87.30      0.01         0.01
  GM-930_46                  67.15     67.15    167.99      0.01         0.01
  GM-930_47                  47.18     47.18     50.31      0.01         0.01
  GM-930_48                  40.56     40.56     67.15      0.01         0.01
  PX-9609                     0.98      0.98      1.01      0.93         0.15
  
  
  ***************
  Pumping Summary
  ***************
  
  ---------------------------------------------------------------------------------------------------------
                                                  Min       Avg       Max     Total     Power    % Time Off
                        Percent   Number of      Flow      Flow      Flow    Volume     Usage    Pump Curve
  Pump                 Utilized   Start-Ups       GPM       GPM       GPM  10^6 gal     Kw-hr    Low   High
  ---------------------------------------------------------------------------------------------------------
  PMP1-1002                0.52           1      0.00     19.97     25.19     0.001      0.04    0.0    0.0
  PMP1-1003                0.92           1      0.00     12.17     24.31     0.001      0.27    0.0    0.0
  PMP1-147                 0.07           1      0.00    325.98   1008.46     0.002      0.24    0.0    0.0
  PMP1-220                 3.02           7      0.00    418.51    486.17     0.127      9.26    0.0    0.0
  PMP1-221                 3.10           2      0.00    126.00    947.64     0.039      1.93    0.0    0.0
  PMP1-222                 0.00           0      0.00      0.00      0.00     0.000      0.00    0.0    0.0
  PMP1-223                 0.00           0      0.00      0.00      0.00     0.000      0.00    0.0    0.0
  PMP1-224                 0.02           1      0.00    221.27    258.79     0.000      0.03    0.0    0.0
  PMP1-225                 0.00           0      0.00      0.00      0.00     0.000      0.00    0.0    0.0
  PMP1-226                 0.84          12      0.00   2757.04   3800.49     0.233     21.76    0.0    0.0
  PMP1-227                 0.46           1      0.00     94.08    120.67     0.004      0.39    0.0    0.0
  PMP1-228                 1.53           2      0.00    125.17    309.41     0.019      1.28    0.0    0.0
  PMP1-229                 0.84           4      0.00    266.04   1302.23     0.022      4.38    0.0    0.0
  PMP1-230                 0.00           0      0.00      0.00      0.00     0.000      0.00    0.0    0.0
  PMP1-231                 1.85           3      0.00     91.48    327.89     0.016      1.10    0.0    0.0
  PMP1-232                 0.13           1      0.00    135.68   1035.94     0.001      0.15    0.0    0.0
  PMP1-242                 0.00           0      0.00      0.00      0.00     0.000      0.00    0.0    0.0
  PMP1-243                 0.00           0      0.00      0.00      0.00     0.000      0.00    0.0    0.0
  PMP1-246                 0.06           1      0.00    205.18    985.26     0.001      0.13    0.0    0.0
  PMP1-247                 0.00           0      0.00      0.00      0.00     0.000      0.00    0.0    0.0
  PMP1-250                78.40          10      0.00      0.99    294.51     0.007      0.37    0.0    0.0
  PMP1-251                 0.00           0      0.00      0.00      0.00     0.000      0.00    0.0    0.0
  PMP1-258                 0.10           1      0.00     14.66     15.40     0.000      0.00    0.0    0.0
  PMP2-1002                0.52           1      0.00     19.97     25.19     0.001      0.04    0.0    0.0
  PMP2-1003                0.92           1      0.00     12.17     24.31     0.001      0.27    0.0    0.0
  PMP2-147                 0.07           1      0.00    325.98   1008.46     0.002      0.24    0.0    0.0
  PMP2-220                 0.00           0      0.00      0.00      0.00     0.000      0.00    0.0    0.0
  PMP2-221                 3.10           2      0.00    126.00    947.64     0.039      1.93    0.0    0.0
  PMP2-222                 0.00           0      0.00      0.00      0.00     0.000      0.00    0.0    0.0
  PMP2-223                 0.61           1      0.00    159.49    370.72     0.010      1.30    0.0    0.0
  PMP2-224                 0.71           6      0.00    230.90    261.44     0.017      0.92    0.0    0.0
  PMP2-225                 3.82           5      0.00    640.91   1589.24     0.246     22.00    0.0    0.0
  PMP2-226                 0.02           1      0.00   2577.75   3800.49     0.004      0.45    0.0    0.0
  PMP2-227                 0.46           1      0.00     94.08    120.67     0.004      0.39    0.0    0.0
  PMP2-228                 0.00           0      0.00      0.00      0.00     0.000      0.00    0.0    0.0
  PMP2-229                 0.03           1      0.00    265.39   1302.23     0.000      0.10    0.0    0.0
  PMP2-230                 4.93          10      0.00    366.13   1237.36     0.181     25.54    0.0    0.0
  PMP2-231                 1.85           3      0.00     91.48    327.89     0.016      1.10    0.0    0.0
  PMP2-232                 0.13           1      0.00    135.68   1035.94     0.001      0.15    0.0    0.0
  PMP2-242                 0.00           0      0.00      0.00      0.00     0.000      0.00    0.0    0.0
  PMP2-243                 1.25           1      0.00    102.74    240.06     0.013      0.44    0.0    0.0
  PMP2-246                 0.06           1      0.00    205.18    985.26     0.001      0.13    0.0    0.0
  PMP2-247                 0.00           0      0.00      0.00      0.00     0.000      0.00    0.0    0.0
  PMP2-250                78.40          10      0.00      0.99    294.51     0.007      0.37    0.0    0.0
  PMP2-251                 0.00           0      0.00      0.00      0.00     0.000      0.00    0.0    0.0
  PMP2-258                 0.10           1      0.00     14.66     15.40     0.000      0.00    0.0    0.0
  

  Analysis begun on:  Tue Jun 23 21:16:47 2026
  Analysis ended on:  Tue Jun 23 21:17:10 2026
  Total elapsed time: 00:00:23