
  EPA STORM WATER MANAGEMENT MODEL - VERSION 5.2 (Build 5.2.4)
  ------------------------------------------------------------

  Example 6 of Extran Manual - 
  Type 1 Pump 
  WARNING 04: minimum elevation drop used for Conduit 8061
  
  ****************
  Analysis Options
  ****************
  Flow Units ............... CFS
  Process Models:
    Rainfall/Runoff ........ NO
    RDII ................... NO
    Snowmelt ............... NO
    Groundwater ............ NO
    Flow Routing ........... YES
    Ponding Allowed ........ NO
    Water Quality .......... NO
  Flow Routing Method ...... DYNWAVE
  Surcharge Method ......... EXTRAN
  Starting Date ............ 01/01/2002 00:00:00
  Ending Date .............. 01/01/2002 08:00:00
  Antecedent Dry Days ...... 0.0
  Report Time Step ......... 00:15:00
  Routing Time Step ........ 30.00 sec
  Variable Time Step ....... NO
  Maximum Trials ........... 8
  Number of Threads ........ 1
  Head Tolerance ........... 0.005000 ft
  
  
  ERROR 134: Node 82310 has illegal DUMMY link connections.
  
  ERROR 134: Node 82310 has illegal DUMMY link connections.
  
  ERROR 134: Node 15009 has illegal DUMMY link connections.

  Analysis begun on:  Tue Jun 23 21:17:10 2026
  Analysis ended on:  Tue Jun 23 21:17:10 2026
  Total elapsed time: < 1 sec