
  EPA STORM WATER MANAGEMENT MODEL - VERSION 5.2 (Build 5.2.4)
  ------------------------------------------------------------

  Example 6 of Extran Manual - with negative inverts 
  Type 2 Pump 
  WARNING 04: minimum elevation drop used for Conduit 8040
  WARNING 04: minimum elevation drop used for Conduit 8100
  WARNING 04: minimum elevation drop used for Conduit 8130
  WARNING 04: minimum elevation drop used for Conduit 1570
  WARNING 04: minimum elevation drop used for Conduit 1600
  WARNING 04: minimum elevation drop used for Conduit 1630
  WARNING 04: minimum elevation drop used for Conduit 1602
  
  ****************
  Analysis Options
  ****************
  Flow Units ............... CFS
  Process Models:
    Rainfall/Runoff ........ NO
    RDII ................... NO
    Snowmelt ............... NO
    Groundwater ............ NO
    Flow Routing ........... YES
    Ponding Allowed ........ NO
    Water Quality .......... NO
  Flow Routing Method ...... DYNWAVE
  Surcharge Method ......... EXTRAN
  Starting Date ............ 01/01/2002 00:00:00
  Ending Date .............. 01/01/2002 08:00:00
  Antecedent Dry Days ...... 0.0
  Report Time Step ......... 00:01:00
  Routing Time Step ........ 20.00 sec
  Variable Time Step ....... NO
  Maximum Trials ........... 8
  Number of Threads ........ 1
  Head Tolerance ........... 0.005000 ft
  
  
  **************************        Volume        Volume
  Flow Routing Continuity        acre-feet      10^6 gal
  **************************     ---------     ---------
  Dry Weather Inflow .......         0.000         0.000
  Wet Weather Inflow .......         0.000         0.000
  Groundwater Inflow .......         0.000         0.000
  RDII Inflow ..............         0.000         0.000
  External Inflow ..........        23.553         7.675
  External Outflow .........        19.600         6.387
  Flooding Loss ............         2.767         0.902
  Evaporation Loss .........         0.000         0.000
  Exfiltration Loss ........         0.000         0.000
  Initial Stored Volume ....         1.429         0.466
  Final Stored Volume ......         3.814         1.243
  Continuity Error (%) .....        -4.802
  
  
  *************************
  Highest Continuity Errors
  *************************
  Node 81309 (6.56%)
  Node 15009 (5.02%)
  Node 16109 (4.30%)
  Node 80608 (2.34%)
  Node 10309 (2.14%)
  
  
  ********************************
  Highest Flow Instability Indexes
  ********************************
  All links are stable.
  
  
  *********************************
  Most Frequent Nonconverging Nodes
  *********************************
  Node 10208 (7.92%)
  Node 80408 (7.08%)
  Node 80608 (5.97%)
  Node 81009 (2.01%)
  Node 81309 (1.60%)
  
  
  *************************
  Routing Time Step Summary
  *************************
  Minimum Time Step           :    20.00 sec
  Average Time Step           :    20.00 sec
  Maximum Time Step           :    20.00 sec
  % of Time in Steady State   :     0.00
  Average Iterations per Step :     2.93
  % of Steps Not Converging   :     7.92
  
  
  ******************
  Node Depth Summary
  ******************
  
  ---------------------------------------------------------------------------------
                                 Average  Maximum  Maximum  Time of Max    Reported
                                   Depth    Depth      HGL   Occurrence   Max Depth
  Node                 Type         Feet     Feet     Feet  days hr:min        Feet
  ---------------------------------------------------------------------------------
  80408                JUNCTION     6.63    13.40     7.24     0  00:09       13.40
  80608                JUNCTION     5.83    16.70    10.54     0  00:09       11.28
  81009                JUNCTION     4.69     8.80     2.64     0  00:25        8.80
  81309                JUNCTION     3.64     8.81     2.65     0  00:54        6.72
  10309                JUNCTION     2.58     3.99    -2.17     0  03:06        3.99
  15009                JUNCTION     3.14     5.24    -0.92     0  03:04        5.24
  16009                JUNCTION     2.65     4.03    -2.13     0  03:05        4.03
  16109                JUNCTION     2.75     4.09    -2.07     0  03:03        4.09
  10208                OUTFALL      1.26     2.10    -4.90     0  03:06        2.10
  82309                STORAGE      4.91     9.63     3.47     0  00:00        9.45
  
  
  *******************
  Node Inflow Summary
  *******************
  
  -------------------------------------------------------------------------------------------------
                                  Maximum  Maximum                  Lateral       Total        Flow
                                  Lateral    Total  Time of Max      Inflow      Inflow     Balance
                                   Inflow   Inflow   Occurrence      Volume      Volume       Error
  Node                 Type           CFS      CFS  days hr:min    10^6 gal    10^6 gal     Percent
  -------------------------------------------------------------------------------------------------
  80408                JUNCTION     45.00    51.27     0  00:08        3.64        3.67       1.217
  80608                JUNCTION      0.00    60.02     0  00:05           0        3.75       2.393
  81009                JUNCTION     50.00    50.00     0  00:15        4.04        4.04       2.904
  81309                JUNCTION      0.00    50.01     0  00:49           0        3.13       7.020
  10309                JUNCTION      0.00    77.18     0  03:03           0        6.53       2.191
  15009                JUNCTION      0.00    54.79     0  00:54           0         3.9       5.283
  16009                JUNCTION      0.00    77.29     0  03:02           0        6.68       2.110
  16109                JUNCTION      0.00    32.82     0  01:45           0        3.11       4.494
  10208                OUTFALL       0.00    76.89     0  03:06           0        6.39       0.000
  82309                STORAGE       0.00    45.15     0  00:15           0        3.62     -15.656
  
  
  **********************
  Node Surcharge Summary
  **********************
  
  Surcharging occurs when water rises above the top of the highest conduit.
  ---------------------------------------------------------------------
                                               Max. Height   Min. Depth
                                   Hours       Above Crown    Below Rim
  Node                 Type      Surcharged           Feet         Feet
  ---------------------------------------------------------------------
  80408                JUNCTION        3.52          9.400        0.000
  80608                JUNCTION        3.51         12.700        0.000
  81009                JUNCTION        2.86          4.300        0.000
  81309                JUNCTION        2.38          4.309        3.691
  
  
  *********************
  Node Flooding Summary
  *********************
  
  Flooding refers to all water that overflows a node, whether it ponds or not.
  --------------------------------------------------------------------------
                                                             Total   Maximum
                                 Maximum   Time of Max       Flood    Ponded
                        Hours       Rate    Occurrence      Volume     Depth
  Node                 Flooded       CFS   days hr:min    10^6 gal      Feet
  --------------------------------------------------------------------------
  80408                   1.89     32.37      0  00:09       0.099     0.000
  80608                   0.01     29.73      0  00:09       0.004     0.000
  81009                   2.27     20.19      0  00:25       0.799     0.000
  
  
  **********************
  Storage Volume Summary
  **********************
  
  ------------------------------------------------------------------------------------------------
                         Average    Avg   Evap  Exfil     Maximum    Max    Time of Max    Maximum
                          Volume   Pcnt   Pcnt   Pcnt      Volume   Pcnt     Occurrence    Outflow
  Storage Unit          1000 ftģ   Full   Loss   Loss    1000 ftģ   Full    days hr:min        CFS
  ------------------------------------------------------------------------------------------------
  82309                    0.059   24.5    0.0    0.0       0.116   48.2       0  00:00      87.35
  
  
  ***********************
  Outfall Loading Summary
  ***********************
  
  -----------------------------------------------------------
                         Flow       Avg       Max       Total
                         Freq      Flow      Flow      Volume
  Outfall Node           Pcnt       CFS       CFS    10^6 gal
  -----------------------------------------------------------
  10208                 96.25     30.80     76.89       6.387
  -----------------------------------------------------------
  System                96.25     30.80     76.89       6.387
  
  
  ********************
  Link Flow Summary
  ********************
  
  -----------------------------------------------------------------------------
                                 Maximum  Time of Max   Maximum    Max/    Max/
                                  |Flow|   Occurrence   |Veloc|    Full    Full
  Link                 Type          CFS  days hr:min    ft/sec    Flow   Depth
  -----------------------------------------------------------------------------
  8040                 CONDUIT     45.10     0  00:15      3.59   48.60    1.00
  8060                 CONDUIT     60.02     0  00:05      7.18    1.48    1.00
  8100                 CONDUIT     50.01     0  00:49      4.30   66.27    1.00
  8130                 CONDUIT     44.79     0  00:54     15.92   49.17    1.00
  1030                 CONDUIT     76.89     0  03:06      2.76    0.09    0.34
  1570                 CONDUIT     44.63     0  03:05     18.79   35.20    0.84
  1600                 CONDUIT     32.66     0  03:02      3.52    6.29    0.68
  1630                 CONDUIT     77.18     0  03:03      3.32    0.67    0.45
  1602                 CONDUIT     32.82     0  01:45      2.14   73.69    0.91
  90011                PUMP        10.00     0  00:10              0.50
  
  
  ***************************
  Flow Classification Summary
  ***************************
  
  -------------------------------------------------------------------------------------
                      Adjusted    ---------- Fraction of Time in Flow Class ---------- 
                       /Actual         Up    Down  Sub   Sup   Up    Down  Norm  Inlet 
  Conduit               Length    Dry  Dry   Dry   Crit  Crit  Crit  Crit  Ltd   Ctrl  
  -------------------------------------------------------------------------------------
  8040                    1.00   0.00  0.00  0.00  1.00  0.00  0.00  0.00  0.01  0.00
  8060                    1.00   0.00  0.00  0.00  0.69  0.00  0.31  0.00  0.00  0.00
  8100                    1.00   0.00  0.00  0.00  1.00  0.00  0.00  0.00  0.01  0.00
  8130                    1.00   0.00  0.00  0.00  1.00  0.00  0.00  0.00  0.00  0.00
  1030                    1.00   0.01  0.00  0.00  0.99  0.00  0.00  0.00  0.00  0.00
  1570                    1.00   0.00  0.00  0.00  1.00  0.00  0.00  0.00  0.00  0.00
  1600                    1.00   0.00  0.00  0.00  1.00  0.00  0.00  0.00  0.00  0.00
  1630                    1.00   0.00  0.00  0.00  1.00  0.00  0.00  0.00  0.00  0.00
  1602                    1.00   0.00  0.00  0.00  1.00  0.00  0.00  0.00  0.00  0.00
  
  
  *************************
  Conduit Surcharge Summary
  *************************
  
  ----------------------------------------------------------------------------
                                                           Hours        Hours 
                         --------- Hours Full --------   Above Full   Capacity
  Conduit                Both Ends  Upstream  Dnstream   Normal Flow   Limited
  ----------------------------------------------------------------------------
  8040                        3.51      3.52      3.51      3.54         3.22
  8060                        2.97      3.10      3.51      2.94         0.01
  8100                        2.36      2.86      2.37      6.79         2.29
  8130                        2.04      2.37      2.06      7.60         1.97
  1570                        0.01      0.01      0.01      7.45         0.01
  1600                        0.01      0.01      0.01      4.69         0.01
  1602                        0.01      3.43      0.01      8.00         0.01
  
  
  ***************
  Pumping Summary
  ***************
  
  ---------------------------------------------------------------------------------------------------------
                                                  Min       Avg       Max     Total     Power    % Time Off
                        Percent   Number of      Flow      Flow      Flow    Volume     Usage    Pump Curve
  Pump                 Utilized   Start-Ups       CFS       CFS       CFS  10^6 gal     Kw-hr    Low   High
  ---------------------------------------------------------------------------------------------------------
  90011                   51.67           1      0.00      8.64     10.00     0.962     11.33    0.0    0.0
  

  Analysis begun on:  Tue Jun 23 21:17:11 2026
  Analysis ended on:  Tue Jun 23 21:17:11 2026
  Total elapsed time: < 1 sec