
  EPA STORM WATER MANAGEMENT MODEL - VERSION 5.2 (Build 5.2.4)
  ------------------------------------------------------------

  Scenario Run :  LID_USAGE 
  WARNING 03: negative offset ignored for Link SWALE
  WARNING 03: negative offset ignored for Link SWALE
  WARNING 02: maximum depth increased for Node 140
  WARNING 02: maximum depth increased for Node 173
  WARNING 02: maximum depth increased for Node 25
  WARNING 02: maximum depth increased for Node 255
  WARNING 02: maximum depth increased for Node 26
  WARNING 02: maximum depth increased for Node 276
  WARNING 02: maximum depth increased for Node 31
  WARNING 02: maximum depth increased for Node 74
  WARNING 02: maximum depth increased for Node 77
  WARNING 02: maximum depth increased for Node JCT-10
  WARNING 02: maximum depth increased for Node JCT-120
  WARNING 02: maximum depth increased for Node JCT-160
  WARNING 02: maximum depth increased for Node JCT-162
  WARNING 02: maximum depth increased for Node JCT-164
  WARNING 02: maximum depth increased for Node JCT-166
  WARNING 02: maximum depth increased for Node JCT-168
  WARNING 02: maximum depth increased for Node JCT-170
  
  ****************
  Analysis Options
  ****************
  Flow Units ............... CFS
  Process Models:
    Rainfall/Runoff ........ YES
    RDII ................... YES
    Snowmelt ............... YES
    Groundwater ............ YES
    Flow Routing ........... YES
    Ponding Allowed ........ NO
    Water Quality .......... NO
  Infiltration Method ...... GREEN_AMPT
  Flow Routing Method ...... DYNWAVE
  Surcharge Method ......... EXTRAN
  Starting Date ............ 01/01/1997 00:00:00
  Ending Date .............. 01/02/1997 02:00:00
  Antecedent Dry Days ...... 5.0
  Report Time Step ......... 00:05:00
  Wet Time Step ............ 00:01:00
  Dry Time Step ............ 00:01:00
  Routing Time Step ........ 10.00 sec
  Variable Time Step ....... YES
  Maximum Trials ........... 8
  Number of Threads ........ 1
  Head Tolerance ........... 0.000100 ft
  
  
  **********************           Volume        Volume
  Rainfall Dependent I/I        acre-feet      10^6 gal
  **********************        ---------     ---------
  Sewershed Rainfall ......        88.411        28.810
  RDII Produced ...........         4.417         1.439
  RDII Ratio ..............         0.050
  
  
  ERROR 323: cannot open runoff interface file C:\Users\dickinre\Desktop\runoff.rof.
  
  ERROR 331: cannot open hot start interface file C:\Users\dickinre\Desktop\greenville.rff.hsf.

  Analysis begun on:  Wed Jun 24 15:24:26 2026
  Analysis ended on:  Wed Jun 24 15:24:26 2026
  Total elapsed time: < 1 sec