
  EPA STORM WATER MANAGEMENT MODEL - VERSION 5.2 (Build 5.2.4)
  ------------------------------------------------------------

  TEST - COMBO ALL LINK TYPES 
  Storage, pump, weir, orifice, outlet, conduit with controls 
  
  ****************
  Analysis Options
  ****************
  Flow Units ............... CFS
  Process Models:
    Rainfall/Runoff ........ NO
    RDII ................... NO
    Snowmelt ............... NO
    Groundwater ............ NO
    Flow Routing ........... YES
    Ponding Allowed ........ NO
    Water Quality .......... NO
  Flow Routing Method ...... DYNWAVE
  Surcharge Method ......... EXTRAN
  Starting Date ............ 02/02/2002 00:00:00
  Ending Date .............. 02/02/2002 10:00:00
  Antecedent Dry Days ...... 0.0
  Report Time Step ......... 00:01:00
  Routing Time Step ........ 5.00 sec
  Variable Time Step ....... YES
  Maximum Trials ........... 8
  Number of Threads ........ 1
  Head Tolerance ........... 0.005000 ft
  
  
  **************************        Volume        Volume
  Flow Routing Continuity        acre-feet      10^6 gal
  **************************     ---------     ---------
  Dry Weather Inflow .......         0.000         0.000
  Wet Weather Inflow .......         0.000         0.000
  Groundwater Inflow .......         0.000         0.000
  RDII Inflow ..............         0.000         0.000
  External Inflow ..........        19.834         6.463
  External Outflow .........        19.815         6.457
  Flooding Loss ............         0.000         0.000
  Evaporation Loss .........         0.000         0.000
  Exfiltration Loss ........         0.000         0.000
  Initial Stored Volume ....         0.000         0.000
  Final Stored Volume ......         0.078         0.025
  Continuity Error (%) .....        -0.297
  
  
  ***************************
  Time-Step Critical Elements
  ***************************
  None
  
  
  ********************************
  Highest Flow Instability Indexes
  ********************************
  All links are stable.
  
  
  *********************************
  Most Frequent Nonconverging Nodes
  *********************************
  Node J3 (0.04%)
  Node Out (0.04%)
  Node OvfOut (0.04%)
  
  
  *************************
  Routing Time Step Summary
  *************************
  Minimum Time Step           :     4.00 sec
  Average Time Step           :     5.00 sec
  Maximum Time Step           :     5.00 sec
  % of Time in Steady State   :     0.00
  Average Iterations per Step :     2.01
  % of Steps Not Converging   :     0.04
  Time Step Frequencies       :
      5.000 -  3.155 sec      :   100.00 %
      3.155 -  1.991 sec      :     0.00 %
      1.991 -  1.256 sec      :     0.00 %
      1.256 -  0.792 sec      :     0.00 %
      0.792 -  0.500 sec      :     0.00 %
  
  
  ******************
  Node Depth Summary
  ******************
  
  ---------------------------------------------------------------------------------
                                 Average  Maximum  Maximum  Time of Max    Reported
                                   Depth    Depth      HGL   Occurrence   Max Depth
  Node                 Type         Feet     Feet     Feet  days hr:min        Feet
  ---------------------------------------------------------------------------------
  J1                   JUNCTION     0.61     1.49    21.49     0  00:19        1.49
  J3                   JUNCTION     0.64     4.39    19.39     0  00:11        2.38
  J5                   JUNCTION     0.72     2.05    12.05     0  00:12        2.02
  S1                   STORAGE      5.09     9.84    19.84     0  00:55        9.84
  Out                  OUTFALL      0.71     2.01    10.01     0  04:16        2.01
  OvfOut               OUTFALL      0.00     0.00     8.00     0  00:00        0.00
  
  
  *******************
  Node Inflow Summary
  *******************
  
  -------------------------------------------------------------------------------------------------
                                  Maximum  Maximum                  Lateral       Total        Flow
                                  Lateral    Total  Time of Max      Inflow      Inflow     Balance
                                   Inflow   Inflow   Occurrence      Volume      Volume       Error
  Node                 Type           CFS      CFS  days hr:min    10^6 gal    10^6 gal     Percent
  -------------------------------------------------------------------------------------------------
  J1                   JUNCTION     60.00    60.00     0  00:15        6.46        6.46      -0.022
  J3                   JUNCTION      0.00    45.00     0  04:13           0        3.85      -0.480
  J5                   JUNCTION      0.00    66.21     0  00:11           0        3.87       0.033
  S1                   STORAGE       0.00    60.00     0  00:19           0        6.46       0.164
  Out                  OUTFALL       0.00    45.78     0  04:16           0        3.87       0.000
  OvfOut               OUTFALL       0.00    25.00     0  00:55           0        2.59       0.000
  
  
  **********************
  Node Surcharge Summary
  **********************
  
  Surcharging occurs when water rises above the top of the highest conduit.
  ---------------------------------------------------------------------
                                               Max. Height   Min. Depth
                                   Hours       Above Crown    Below Rim
  Node                 Type      Surcharged           Feet         Feet
  ---------------------------------------------------------------------
  J3                   JUNCTION        0.01          0.888        5.612
  
  
  *********************
  Node Flooding Summary
  *********************
  
  No nodes were flooded.
  
  
  **********************
  Storage Volume Summary
  **********************
  
  ------------------------------------------------------------------------------------------------
                         Average    Avg   Evap  Exfil     Maximum    Max    Time of Max    Maximum
                          Volume   Pcnt   Pcnt   Pcnt      Volume   Pcnt     Occurrence    Outflow
  Storage Unit          1000 ftģ   Full   Loss   Loss    1000 ftģ   Full    days hr:min        CFS
  ------------------------------------------------------------------------------------------------
  S1                       5.086   25.4    0.0    0.0       9.843   49.2       0  00:55      60.00
  
  
  ***********************
  Outfall Loading Summary
  ***********************
  
  -----------------------------------------------------------
                         Flow       Avg       Max       Total
                         Freq      Flow      Flow      Volume
  Outfall Node           Pcnt       CFS       CFS    10^6 gal
  -----------------------------------------------------------
  Out                   49.26     29.18     45.78       3.871
  OvfOut                39.68     24.20     25.00       2.586
  -----------------------------------------------------------
  System                44.47     53.38     60.00       6.457
  
  
  ********************
  Link Flow Summary
  ********************
  
  -----------------------------------------------------------------------------
                                 Maximum  Time of Max   Maximum    Max/    Max/
                                  |Flow|   Occurrence   |Veloc|    Full    Full
  Link                 Type          CFS  days hr:min    ft/sec    Flow   Depth
  -----------------------------------------------------------------------------
  C1                   CONDUIT     60.00     0  00:19     10.44    0.30    0.69
  C2                   CONDUIT     64.18     0  00:11     13.10    0.96    0.68
  C3                   CONDUIT     45.78     0  04:16      7.22    0.50    0.50
  P1                   PUMP        45.00     0  04:13              0.90
  W1                   WEIR        25.00     0  00:55                      0.46
  O1                   ORIFICE     11.21     0  00:11                      1.00
  
  
  ***************************
  Flow Classification Summary
  ***************************
  
  -------------------------------------------------------------------------------------
                      Adjusted    ---------- Fraction of Time in Flow Class ---------- 
                       /Actual         Up    Down  Sub   Sup   Up    Down  Norm  Inlet 
  Conduit               Length    Dry  Dry   Dry   Crit  Crit  Crit  Crit  Ltd   Ctrl  
  -------------------------------------------------------------------------------------
  C1                      1.00   0.00  0.37  0.00  0.62  0.01  0.00  0.00  0.99  0.00
  C2                      1.00   0.02  0.51  0.00  0.07  0.41  0.00  0.00  0.98  0.00
  C3                      1.00   0.02  0.00  0.00  0.54  0.45  0.00  0.00  0.02  0.00
  
  
  *************************
  Conduit Surcharge Summary
  *************************
  
  ----------------------------------------------------------------------------
                                                           Hours        Hours 
                         --------- Hours Full --------   Above Full   Capacity
  Conduit                Both Ends  Upstream  Dnstream   Normal Flow   Limited
  ----------------------------------------------------------------------------
  C1                          0.01      0.01      4.10      0.01         0.01
  C2                          0.01      0.01      0.01      0.01         0.01
  
  
  ***************
  Pumping Summary
  ***************
  
  ---------------------------------------------------------------------------------------------------------
                                                  Min       Avg       Max     Total     Power    % Time Off
                        Percent   Number of      Flow      Flow      Flow    Volume     Usage    Pump Curve
  Pump                 Utilized   Start-Ups       CFS       CFS       CFS  10^6 gal     Kw-hr    Low   High
  ---------------------------------------------------------------------------------------------------------
  P1                      40.78           1      0.00     35.10     45.00     3.854     38.81    0.0    0.0
  

  Analysis begun on:  Tue Jun 23 21:10:42 2026
  Analysis ended on:  Tue Jun 23 21:10:42 2026
  Total elapsed time: < 1 sec