
  EPA STORM WATER MANAGEMENT MODEL - VERSION 5.2 (Build 5.2.4)
  ------------------------------------------------------------

  TEST - ROUTING WITH OUTLET RATING CURVE 
  Outlet link with tabular/functional rating 
  WARNING 04: minimum elevation drop used for Conduit C1
  WARNING 04: minimum elevation drop used for Conduit C2
  
  ****************
  Analysis Options
  ****************
  Flow Units ............... CFS
  Process Models:
    Rainfall/Runoff ........ NO
    RDII ................... NO
    Snowmelt ............... NO
    Groundwater ............ NO
    Flow Routing ........... YES
    Ponding Allowed ........ NO
    Water Quality .......... NO
  Flow Routing Method ...... DYNWAVE
  Surcharge Method ......... EXTRAN
  Starting Date ............ 02/02/2002 00:00:00
  Ending Date .............. 02/02/2002 08:00:00
  Antecedent Dry Days ...... 0.0
  Report Time Step ......... 00:01:00
  Routing Time Step ........ 5.00 sec
  Variable Time Step ....... NO
  Maximum Trials ........... 8
  Number of Threads ........ 1
  Head Tolerance ........... 0.005000 ft
  
  
  **************************        Volume        Volume
  Flow Routing Continuity        acre-feet      10^6 gal
  **************************     ---------     ---------
  Dry Weather Inflow .......         0.000         0.000
  Wet Weather Inflow .......         0.000         0.000
  Groundwater Inflow .......         0.000         0.000
  RDII Inflow ..............         0.000         0.000
  External Inflow ..........        12.396         4.039
  External Outflow .........        12.711         4.142
  Flooding Loss ............         0.000         0.000
  Evaporation Loss .........         0.000         0.000
  Exfiltration Loss ........         0.000         0.000
  Initial Stored Volume ....         0.000         0.000
  Final Stored Volume ......         0.001         0.000
  Continuity Error (%) .....        -2.543
  
  
  *************************
  Highest Continuity Errors
  *************************
  Node 3 (-6.73%)
  Node 2 (4.02%)
  
  
  ********************************
  Highest Flow Instability Indexes
  ********************************
  Link C2 (34)
  Link OL1 (34)
  Link C1 (31)
  
  
  *********************************
  Most Frequent Nonconverging Nodes
  *********************************
  Node 4 (18.77%)
  Node 2 (18.73%)
  Node 3 (18.54%)
  Node 1 (0.14%)
  
  
  *************************
  Routing Time Step Summary
  *************************
  Minimum Time Step           :     5.00 sec
  Average Time Step           :     5.00 sec
  Maximum Time Step           :     5.00 sec
  % of Time in Steady State   :     0.00
  Average Iterations per Step :     5.31
  % of Steps Not Converging   :    18.77
  
  
  ******************
  Node Depth Summary
  ******************
  
  ---------------------------------------------------------------------------------
                                 Average  Maximum  Maximum  Time of Max    Reported
                                   Depth    Depth      HGL   Occurrence   Max Depth
  Node                 Type         Feet     Feet     Feet  days hr:min        Feet
  ---------------------------------------------------------------------------------
  1                    JUNCTION     1.52     3.92    13.92     0  00:17        3.85
  2                    JUNCTION     1.35     3.75    13.75     0  00:16        3.40
  3                    JUNCTION     1.20     3.10    13.10     0  00:36        3.08
  4                    OUTFALL      0.83     2.31    12.31     0  00:16        2.29
  
  
  *******************
  Node Inflow Summary
  *******************
  
  -------------------------------------------------------------------------------------------------
                                  Maximum  Maximum                  Lateral       Total        Flow
                                  Lateral    Total  Time of Max      Inflow      Inflow     Balance
                                   Inflow   Inflow   Occurrence      Volume      Volume       Error
  Node                 Type           CFS      CFS  days hr:min    10^6 gal    10^6 gal     Percent
  -------------------------------------------------------------------------------------------------
  1                    JUNCTION     50.00    50.00     0  00:15        4.04        4.04      -0.099
  2                    JUNCTION      0.00    55.50     0  00:16           0        4.04       4.193
  3                    JUNCTION      0.00    72.53     0  00:16           0        3.88      -6.306
  4                    OUTFALL       0.00    58.68     0  00:16           0        4.14       0.000
  
  
  **********************
  Node Surcharge Summary
  **********************
  
  No nodes were surcharged.
  
  
  *********************
  Node Flooding Summary
  *********************
  
  No nodes were flooded.
  
  
  ***********************
  Outfall Loading Summary
  ***********************
  
  -----------------------------------------------------------
                         Flow       Avg       Max       Total
                         Freq      Flow      Flow      Volume
  Outfall Node           Pcnt       CFS       CFS    10^6 gal
  -----------------------------------------------------------
  4                     99.86     19.25     58.68       4.142
  -----------------------------------------------------------
  System                99.86     19.25     58.68       4.142
  
  
  ********************
  Link Flow Summary
  ********************
  
  -----------------------------------------------------------------------------
                                 Maximum  Time of Max   Maximum    Max/    Max/
                                  |Flow|   Occurrence   |Veloc|    Full    Full
  Link                 Type          CFS  days hr:min    ft/sec    Flow   Depth
  -----------------------------------------------------------------------------
  C1                   CONDUIT     55.50     0  00:16      4.78   17.28    0.94
  C2                   CONDUIT     58.68     0  00:16      6.53   18.27    0.67
  OL1                  DUMMY       72.53     0  00:16
  
  
  ***************************
  Flow Classification Summary
  ***************************
  
  -------------------------------------------------------------------------------------
                      Adjusted    ---------- Fraction of Time in Flow Class ---------- 
                       /Actual         Up    Down  Sub   Sup   Up    Down  Norm  Inlet 
  Conduit               Length    Dry  Dry   Dry   Crit  Crit  Crit  Crit  Ltd   Ctrl  
  -------------------------------------------------------------------------------------
  C1                      1.00   0.00  0.00  0.00  1.00  0.00  0.00  0.00  0.01  0.00
  C2                      1.00   0.00  0.00  0.00  1.00  0.00  0.00  0.00  0.00  0.00
  
  
  *************************
  Conduit Surcharge Summary
  *************************
  
  ----------------------------------------------------------------------------
                                                           Hours        Hours 
                         --------- Hours Full --------   Above Full   Capacity
  Conduit                Both Ends  Upstream  Dnstream   Normal Flow   Limited
  ----------------------------------------------------------------------------
  C1                          0.01      0.01      0.01      3.22         0.01
  C2                          0.01      0.01      0.01      3.21         0.01
  

  Analysis begun on:  Tue Jun 23 21:10:43 2026
  Analysis ended on:  Tue Jun 23 21:10:43 2026
  Total elapsed time: < 1 sec