
  EPA STORM WATER MANAGEMENT MODEL - VERSION 5.2 (Build 5.2.4)
  ------------------------------------------------------------

  TEST1 
  Test FLOW_UNITS = CMS (SI units) 
  WARNING 04: minimum elevation drop used for Conduit 1
  WARNING 04: minimum elevation drop used for Conduit 2
  WARNING 04: minimum elevation drop used for Conduit 3
  WARNING 04: minimum elevation drop used for Conduit 4
  WARNING 04: minimum elevation drop used for Conduit 5
  WARNING 04: minimum elevation drop used for Conduit 6
  WARNING 04: minimum elevation drop used for Conduit 7
  WARNING 04: minimum elevation drop used for Conduit 8
  WARNING 04: minimum elevation drop used for Conduit 9
  WARNING 04: minimum elevation drop used for Conduit 10
  
  ****************
  Analysis Options
  ****************
  Flow Units ............... CMS
  Process Models:
    Rainfall/Runoff ........ NO
    RDII ................... NO
    Snowmelt ............... NO
    Groundwater ............ NO
    Flow Routing ........... YES
    Ponding Allowed ........ NO
    Water Quality .......... NO
  Flow Routing Method ...... DYNWAVE
  Surcharge Method ......... EXTRAN
  Starting Date ............ 02/02/2002 00:00:00
  Ending Date .............. 02/02/2002 05:00:00
  Antecedent Dry Days ...... 0.0
  Report Time Step ......... 00:00:30
  Routing Time Step ........ 5.00 sec
  Variable Time Step ....... NO
  Maximum Trials ........... 8
  Number of Threads ........ 1
  Head Tolerance ........... 0.001524 m
  
  
  **************************        Volume        Volume
  Flow Routing Continuity        hectare-m      10^6 ltr
  **************************     ---------     ---------
  Dry Weather Inflow .......         0.000         0.000
  Wet Weather Inflow .......         0.000         0.000
  Groundwater Inflow .......         0.000         0.000
  RDII Inflow ..............         0.000         0.000
  External Inflow ..........         3.056        30.561
  External Outflow .........         3.056        30.560
  Flooding Loss ............         0.000         0.000
  Evaporation Loss .........         0.000         0.000
  Exfiltration Loss ........         0.000         0.000
  Initial Stored Volume ....         0.000         0.000
  Final Stored Volume ......         0.001         0.006
  Continuity Error (%) .....        -0.018
  
  
  ********************************
  Highest Flow Instability Indexes
  ********************************
  Link 4 (3)
  Link 5 (2)
  Link 6 (2)
  Link 7 (2)
  Link 1 (2)
  
  
  *********************************
  Most Frequent Nonconverging Nodes
  *********************************
  Node 10 (3.50%)
  Node 0 (3.19%)
  Node 1 (3.08%)
  Node 2 (2.78%)
  Node 3 (2.31%)
  
  
  *************************
  Routing Time Step Summary
  *************************
  Minimum Time Step           :     5.00 sec
  Average Time Step           :     5.00 sec
  Maximum Time Step           :     5.00 sec
  % of Time in Steady State   :     0.00
  Average Iterations per Step :     2.28
  % of Steps Not Converging   :     3.50
  
  
  ******************
  Node Depth Summary
  ******************
  
  ---------------------------------------------------------------------------------
                                 Average  Maximum  Maximum  Time of Max    Reported
                                   Depth    Depth      HGL   Occurrence   Max Depth
  Node                 Type       Meters   Meters   Meters  days hr:min      Meters
  ---------------------------------------------------------------------------------
  0                    JUNCTION     1.46     2.40     5.45     0  00:15        2.39
  1                    JUNCTION     1.39     2.29     5.34     0  00:15        2.28
  2                    JUNCTION     1.33     2.19     5.24     0  00:15        2.17
  3                    JUNCTION     1.27     2.08     5.13     0  00:15        2.06
  4                    JUNCTION     1.20     1.96     5.01     0  00:15        1.96
  5                    JUNCTION     1.14     1.85     4.90     0  00:15        1.85
  6                    JUNCTION     1.08     1.75     4.80     0  00:15        1.75
  7                    JUNCTION     1.02     1.64     4.69     0  00:15        1.64
  8                    JUNCTION     0.95     1.53     4.58     0  00:15        1.53
  9                    JUNCTION     0.89     1.42     4.47     0  00:15        1.41
  10                   OUTFALL      0.58     0.93     3.98     0  00:15        0.93
  
  
  *******************
  Node Inflow Summary
  *******************
  
  -------------------------------------------------------------------------------------------------
                                  Maximum  Maximum                  Lateral       Total        Flow
                                  Lateral    Total  Time of Max      Inflow      Inflow     Balance
                                   Inflow   Inflow   Occurrence      Volume      Volume       Error
  Node                 Type           CMS      CMS  days hr:min    10^6 ltr    10^6 ltr     Percent
  -------------------------------------------------------------------------------------------------
  0                    JUNCTION     2.830    2.830     0  00:15        30.6        30.6      -0.006
  1                    JUNCTION     0.000    2.834     0  00:15           0        30.6       0.002
  2                    JUNCTION     0.000    2.839     0  00:15           0        30.6      -0.001
  3                    JUNCTION     0.000    2.845     0  00:15           0        30.6       0.001
  4                    JUNCTION     0.000    2.848     0  00:15           0        30.6      -0.000
  5                    JUNCTION     0.000    2.851     0  00:16           0        30.6      -0.001
  6                    JUNCTION     0.000    2.853     0  00:16           0        30.6       0.002
  7                    JUNCTION     0.000    2.857     0  00:16           0        30.6      -0.000
  8                    JUNCTION     0.000    2.860     0  00:15           0        30.6       0.001
  9                    JUNCTION     0.000    2.864     0  00:15           0        30.6       0.004
  10                   OUTFALL      0.000    2.868     0  00:15           0        30.6       0.000
  
  
  **********************
  Node Surcharge Summary
  **********************
  
  Surcharging occurs when water rises above the top of the highest conduit.
  ---------------------------------------------------------------------
                                               Max. Height   Min. Depth
                                   Hours       Above Crown    Below Rim
  Node                 Type      Surcharged         Meters       Meters
  ---------------------------------------------------------------------
  0                    JUNCTION        2.97          1.185        0.645
  1                    JUNCTION        2.96          1.072        0.758
  2                    JUNCTION        2.96          0.967        0.863
  3                    JUNCTION        2.95          0.856        0.974
  4                    JUNCTION        2.93          0.745        1.085
  5                    JUNCTION        2.92          0.635        1.195
  6                    JUNCTION        2.90          0.528        1.302
  7                    JUNCTION        2.89          0.420        1.410
  8                    JUNCTION        2.86          0.310        1.520
  9                    JUNCTION        2.83          0.195        1.635
  
  
  *********************
  Node Flooding Summary
  *********************
  
  No nodes were flooded.
  
  
  ***********************
  Outfall Loading Summary
  ***********************
  
  -----------------------------------------------------------
                         Flow       Avg       Max       Total
                         Freq      Flow      Flow      Volume
  Outfall Node           Pcnt       CMS       CMS    10^6 ltr
  -----------------------------------------------------------
  10                    98.44     1.725     2.868      30.560
  -----------------------------------------------------------
  System                98.44     1.725     2.868      30.560
  
  
  ********************
  Link Flow Summary
  ********************
  
  -----------------------------------------------------------------------------
                                 Maximum  Time of Max   Maximum    Max/    Max/
                                  |Flow|   Occurrence   |Veloc|    Full    Full
  Link                 Type          CMS  days hr:min     m/sec    Flow   Depth
  -----------------------------------------------------------------------------
  1                    CONDUIT     2.834     0  00:15      2.42   18.62    1.00
  2                    CONDUIT     2.839     0  00:15      2.43   18.65    1.00
  3                    CONDUIT     2.845     0  00:15      2.43   18.68    1.00
  4                    CONDUIT     2.848     0  00:15      2.44   18.71    1.00
  5                    CONDUIT     2.851     0  00:16      2.44   18.72    1.00
  6                    CONDUIT     2.853     0  00:16      2.44   18.74    1.00
  7                    CONDUIT     2.857     0  00:16      2.44   18.76    1.00
  8                    CONDUIT     2.860     0  00:15      2.45   18.79    1.00
  9                    CONDUIT     2.864     0  00:15      2.45   18.81    1.00
  10                   CONDUIT     2.868     0  00:15      2.63   34.11    0.88
  
  
  ***************************
  Flow Classification Summary
  ***************************
  
  -------------------------------------------------------------------------------------
                      Adjusted    ---------- Fraction of Time in Flow Class ---------- 
                       /Actual         Up    Down  Sub   Sup   Up    Down  Norm  Inlet 
  Conduit               Length    Dry  Dry   Dry   Crit  Crit  Crit  Crit  Ltd   Ctrl  
  -------------------------------------------------------------------------------------
  1                       1.00   0.00  0.00  0.00  1.00  0.00  0.00  0.00  0.00  0.00
  2                       1.00   0.00  0.00  0.00  1.00  0.00  0.00  0.00  0.01  0.00
  3                       1.00   0.00  0.00  0.00  1.00  0.00  0.00  0.00  0.01  0.00
  4                       1.00   0.00  0.00  0.00  1.00  0.00  0.00  0.00  0.01  0.00
  5                       1.00   0.01  0.00  0.00  0.99  0.00  0.00  0.00  0.01  0.00
  6                       1.00   0.01  0.00  0.00  0.99  0.00  0.00  0.00  0.00  0.00
  7                       1.00   0.01  0.00  0.00  0.99  0.00  0.00  0.00  0.00  0.00
  8                       1.00   0.01  0.00  0.00  0.99  0.00  0.00  0.00  0.00  0.00
  9                       1.00   0.01  0.00  0.00  0.99  0.00  0.00  0.00  0.00  0.00
  10                      1.00   0.01  0.00  0.00  0.99  0.00  0.00  0.00  0.00  0.00
  
  
  *************************
  Conduit Surcharge Summary
  *************************
  
  ----------------------------------------------------------------------------
                                                           Hours        Hours 
                         --------- Hours Full --------   Above Full   Capacity
  Conduit                Both Ends  Upstream  Dnstream   Normal Flow   Limited
  ----------------------------------------------------------------------------
  1                           2.96      2.97      2.96      3.22         2.96
  2                           2.95      2.96      2.95      3.22         2.95
  3                           2.95      2.95      2.95      3.22         2.95
  4                           2.93      2.95      2.93      3.23         2.93
  5                           2.92      2.93      2.92      3.23         2.92
  6                           2.90      2.92      2.90      3.24         2.90
  7                           2.88      2.90      2.88      3.25         2.88
  8                           2.86      2.88      2.86      3.25         2.86
  9                           2.83      2.86      2.83      3.25         2.83
  10                          0.01      2.83      0.01      3.32         0.01
  

  Analysis begun on:  Tue Jun 23 21:10:42 2026
  Analysis ended on:  Tue Jun 23 21:10:42 2026
  Total elapsed time: < 1 sec