
  EPA STORM WATER MANAGEMENT MODEL - VERSION 5.2 (Build 5.2.4)
  ------------------------------------------------------------

  TEST1 
  Test TRAPEZOIDAL cross-sections 
  WARNING 04: minimum elevation drop used for Conduit 1
  WARNING 04: minimum elevation drop used for Conduit 2
  WARNING 04: minimum elevation drop used for Conduit 3
  WARNING 04: minimum elevation drop used for Conduit 4
  WARNING 04: minimum elevation drop used for Conduit 5
  WARNING 04: minimum elevation drop used for Conduit 6
  WARNING 04: minimum elevation drop used for Conduit 7
  WARNING 04: minimum elevation drop used for Conduit 8
  WARNING 04: minimum elevation drop used for Conduit 9
  WARNING 04: minimum elevation drop used for Conduit 10
  
  ****************
  Analysis Options
  ****************
  Flow Units ............... CFS
  Process Models:
    Rainfall/Runoff ........ NO
    RDII ................... NO
    Snowmelt ............... NO
    Groundwater ............ NO
    Flow Routing ........... YES
    Ponding Allowed ........ NO
    Water Quality .......... NO
  Flow Routing Method ...... DYNWAVE
  Surcharge Method ......... EXTRAN
  Starting Date ............ 02/02/2002 00:00:00
  Ending Date .............. 02/02/2002 05:00:00
  Antecedent Dry Days ...... 0.0
  Report Time Step ......... 00:00:30
  Routing Time Step ........ 5.00 sec
  Variable Time Step ....... NO
  Maximum Trials ........... 8
  Number of Threads ........ 1
  Head Tolerance ........... 0.005000 ft
  
  
  **************************        Volume        Volume
  Flow Routing Continuity        acre-feet      10^6 gal
  **************************     ---------     ---------
  Dry Weather Inflow .......         0.000         0.000
  Wet Weather Inflow .......         0.000         0.000
  Groundwater Inflow .......         0.000         0.000
  RDII Inflow ..............         0.000         0.000
  External Inflow ..........        24.792         8.079
  External Outflow .........        24.784         8.076
  Flooding Loss ............         0.000         0.000
  Evaporation Loss .........         0.000         0.000
  Exfiltration Loss ........         0.000         0.000
  Initial Stored Volume ....         0.000         0.000
  Final Stored Volume ......         0.009         0.003
  Continuity Error (%) .....         0.000
  
  
  ********************************
  Highest Flow Instability Indexes
  ********************************
  Link 4 (3)
  Link 3 (3)
  Link 1 (2)
  Link 2 (2)
  Link 5 (2)
  
  
  *********************************
  Most Frequent Nonconverging Nodes
  *********************************
  Convergence obtained at all time steps.
  
  
  *************************
  Routing Time Step Summary
  *************************
  Minimum Time Step           :     5.00 sec
  Average Time Step           :     5.00 sec
  Maximum Time Step           :     5.00 sec
  % of Time in Steady State   :     0.00
  Average Iterations per Step :     2.01
  % of Steps Not Converging   :     0.00
  
  
  ******************
  Node Depth Summary
  ******************
  
  ---------------------------------------------------------------------------------
                                 Average  Maximum  Maximum  Time of Max    Reported
                                   Depth    Depth      HGL   Occurrence   Max Depth
  Node                 Type         Feet     Feet     Feet  days hr:min        Feet
  ---------------------------------------------------------------------------------
  0                    JUNCTION     1.71     2.64    12.64     0  00:57        2.64
  1                    JUNCTION     1.68     2.60    12.60     0  01:00        2.60
  2                    JUNCTION     1.65     2.56    12.56     0  01:05        2.56
  3                    JUNCTION     1.62     2.51    12.51     0  00:56        2.51
  4                    JUNCTION     1.58     2.46    12.46     0  00:55        2.46
  5                    JUNCTION     1.54     2.40    12.40     0  00:54        2.40
  6                    JUNCTION     1.50     2.33    12.33     0  01:00        2.33
  7                    JUNCTION     1.44     2.25    12.25     0  01:01        2.25
  8                    JUNCTION     1.37     2.15    12.15     0  01:10        2.15
  9                    JUNCTION     1.28     2.01    12.01     0  01:15        2.01
  10                   OUTFALL      1.05     1.69    11.69     0  01:13        1.69
  
  
  *******************
  Node Inflow Summary
  *******************
  
  -------------------------------------------------------------------------------------------------
                                  Maximum  Maximum                  Lateral       Total        Flow
                                  Lateral    Total  Time of Max      Inflow      Inflow     Balance
                                   Inflow   Inflow   Occurrence      Volume      Volume       Error
  Node                 Type           CFS      CFS  days hr:min    10^6 gal    10^6 gal     Percent
  -------------------------------------------------------------------------------------------------
  0                    JUNCTION    100.00   100.00     0  00:15        8.08        8.08      -0.005
  1                    JUNCTION      0.00   100.00     0  00:25           0        8.08       0.005
  2                    JUNCTION      0.00   100.00     0  00:47           0        8.08       0.004
  3                    JUNCTION      0.00   100.00     0  00:46           0        8.08       0.005
  4                    JUNCTION      0.00   100.00     0  00:46           0        8.08       0.004
  5                    JUNCTION      0.00   100.00     0  00:49           0        8.08       0.004
  6                    JUNCTION      0.00   100.00     0  00:51           0        8.08       0.004
  7                    JUNCTION      0.00   100.00     0  01:00           0        8.08       0.004
  8                    JUNCTION      0.00   100.00     0  01:02           0        8.08       0.003
  9                    JUNCTION      0.00   100.00     0  01:11           0        8.08       0.006
  10                   OUTFALL       0.00   100.00     0  01:13           0        8.08       0.000
  
  
  **********************
  Node Surcharge Summary
  **********************
  
  No nodes were surcharged.
  
  
  *********************
  Node Flooding Summary
  *********************
  
  No nodes were flooded.
  
  
  ***********************
  Outfall Loading Summary
  ***********************
  
  -----------------------------------------------------------
                         Flow       Avg       Max       Total
                         Freq      Flow      Flow      Volume
  Outfall Node           Pcnt       CFS       CFS    10^6 gal
  -----------------------------------------------------------
  10                    98.00     61.20    100.00       8.076
  -----------------------------------------------------------
  System                98.00     61.20    100.00       8.076
  
  
  ********************
  Link Flow Summary
  ********************
  
  -----------------------------------------------------------------------------
                                 Maximum  Time of Max   Maximum    Max/    Max/
                                  |Flow|   Occurrence   |Veloc|    Full    Full
  Link                 Type          CFS  days hr:min    ft/sec    Flow   Depth
  -----------------------------------------------------------------------------
  1                    CONDUIT    100.00     0  00:25      3.60    4.31    0.87
  2                    CONDUIT    100.00     0  00:47      3.64    4.31    0.86
  3                    CONDUIT    100.00     0  00:46      3.69    4.31    0.85
  4                    CONDUIT    100.00     0  00:46      3.76    4.31    0.83
  5                    CONDUIT    100.00     0  00:49      3.85    4.31    0.81
  6                    CONDUIT    100.00     0  00:51      3.96    4.31    0.79
  7                    CONDUIT    100.00     0  01:00      4.12    4.31    0.76
  8                    CONDUIT    100.00     0  01:02      4.36    4.31    0.73
  9                    CONDUIT    100.00     0  01:11      4.73    4.31    0.69
  10                   CONDUIT    100.00     0  01:13      5.58    4.31    0.62
  
  
  ***************************
  Flow Classification Summary
  ***************************
  
  -------------------------------------------------------------------------------------
                      Adjusted    ---------- Fraction of Time in Flow Class ---------- 
                       /Actual         Up    Down  Sub   Sup   Up    Down  Norm  Inlet 
  Conduit               Length    Dry  Dry   Dry   Crit  Crit  Crit  Crit  Ltd   Ctrl  
  -------------------------------------------------------------------------------------
  1                       1.00   0.00  0.00  0.00  1.00  0.00  0.00  0.00  0.00  0.00
  2                       1.00   0.00  0.00  0.00  1.00  0.00  0.00  0.00  0.01  0.00
  3                       1.00   0.00  0.00  0.00  1.00  0.00  0.00  0.00  0.01  0.00
  4                       1.00   0.01  0.00  0.00  0.99  0.00  0.00  0.00  0.01  0.00
  5                       1.00   0.01  0.00  0.00  0.99  0.00  0.00  0.00  0.00  0.00
  6                       1.00   0.01  0.00  0.00  0.99  0.00  0.00  0.00  0.00  0.00
  7                       1.00   0.01  0.00  0.00  0.99  0.00  0.00  0.00  0.00  0.00
  8                       1.00   0.01  0.00  0.00  0.99  0.00  0.00  0.00  0.00  0.00
  9                       1.00   0.02  0.00  0.00  0.98  0.00  0.00  0.00  0.00  0.00
  10                      1.00   0.02  0.00  0.00  0.98  0.00  0.00  0.00  0.00  0.00
  
  
  *************************
  Conduit Surcharge Summary
  *************************
  
  ----------------------------------------------------------------------------
                                                           Hours        Hours 
                         --------- Hours Full --------   Above Full   Capacity
  Conduit                Both Ends  Upstream  Dnstream   Normal Flow   Limited
  ----------------------------------------------------------------------------
  1                           0.01      0.01      0.01      3.13         0.01
  2                           0.01      0.01      0.01      3.12         0.01
  3                           0.01      0.01      0.01      3.13         0.01
  4                           0.01      0.01      0.01      3.13         0.01
  5                           0.01      0.01      0.01      3.12         0.01
  6                           0.01      0.01      0.01      3.12         0.01
  7                           0.01      0.01      0.01      3.12         0.01
  8                           0.01      0.01      0.01      3.12         0.01
  9                           0.01      0.01      0.01      3.12         0.01
  10                          0.01      0.01      0.01      3.12         0.01
  

  Analysis begun on:  Tue Jun 23 21:10:43 2026
  Analysis ended on:  Tue Jun 23 21:10:43 2026
  Total elapsed time: < 1 sec