
  EPA STORM WATER MANAGEMENT MODEL - VERSION 5.2 (Build 5.2.4)
  ------------------------------------------------------------

  
  ERROR 205: invalid keyword SETTING at line 85 of [CONTROL] section:
  THEN CONDUIT 6 SETTING = 0.3

  
  ERROR 205: invalid keyword SETTING at line 90 of [CONTROL] section:
  THEN CONDUIT 6 SETTING = 1.0


  Analysis begun on:  Tue Jun 23 21:10:42 2026
  Analysis ended on:  Tue Jun 23 21:10:42 2026
  Total elapsed time: < 1 sec