
  EPA STORM WATER MANAGEMENT MODEL - VERSION 5.2 (Build 5.2.4)
  ------------------------------------------------------------

  Scenario Run :  BASE 
  WARNING 04: minimum elevation drop used for Conduit 11
  WARNING 04: minimum elevation drop used for Conduit 7
  
  *************
  Element Count
  *************
  Number of rain gages ...... 0
  Number of subcatchments ... 0
  Number of nodes ........... 21
  Number of links ........... 20
  Number of pollutants ...... 0
  Number of land uses ....... 0
  
  
  ************
  Node Summary
  ************
                                           Invert      Max.    Ponded    External
  Name                 Type                 Elev.     Depth      Area    Inflow  
  -------------------------------------------------------------------------------
  A                    JUNCTION            284.65     10.00       0.0    Yes
  B                    JUNCTION            285.07     10.00       0.0    Yes
  C                    JUNCTION            285.50     10.00       0.0    Yes
  D                    JUNCTION            285.93     10.00       0.0    Yes
  E                    JUNCTION            286.36     10.00       0.0    Yes
  F                    JUNCTION            287.22     10.00       0.0    Yes
  G                    JUNCTION            287.22     10.00       0.0    Yes
  H                    JUNCTION            287.65     10.00       0.0    Yes
  I                    JUNCTION            288.08     10.00       0.0    Yes
  J                    JUNCTION            288.95     10.00       0.0    Yes
  K                    JUNCTION            288.95     10.00       0.0    Yes
  L                    JUNCTION            289.38     10.00       0.0    Yes
  M                    JUNCTION            289.82     10.00       0.0    Yes
  N                    JUNCTION            290.25     10.00       0.0    Yes
  O                    JUNCTION            290.69     10.00       0.0    Yes
  P                    JUNCTION            291.13     10.00       0.0    Yes
  Q                    JUNCTION            291.56     10.00       0.0    Yes
  R                    JUNCTION            292.00     10.00       0.0    Yes
  S                    JUNCTION            292.44     10.00       0.0    Yes
  OUTFALL              OUTFALL             282.24      2.00       0.0
  T                    STORAGE             292.44     10.00       0.0    Yes
  
  
  ************
  Link Summary
  ************
  Name             From Node        To Node          Type            Length    %Slope Roughness
  ---------------------------------------------------------------------------------------------
  1                A                OUTFALL          CONDUIT          100.0    2.4010    0.0120
  10               J                I                CONDUIT          100.0    0.8662    0.0120
  11               K                J                CONDUIT          100.0    0.0003    0.0120
  12               L                K                CONDUIT          100.0    0.4341    0.0120
  13               M                L                CONDUIT          100.0    0.4347    0.0120
  14               N                M                CONDUIT          100.0    0.4354    0.0120
  15               O                N                CONDUIT          100.0    0.4360    0.0120
  16               P                O                CONDUIT          100.0    0.4367    0.0120
  17               Q                P                CONDUIT          100.0    0.4374    0.0120
  18               R                Q                CONDUIT          100.0    0.4380    0.0120
  19               S                R                CONDUIT          100.0    0.4387    0.0120
  2                B                A                CONDUIT          100.0    0.4276    0.0120
  3                C                B                CONDUIT          100.0    0.4283    0.0120
  4                D                C                CONDUIT          100.0    0.4289    0.0120
  5                E                D                CONDUIT          100.0    0.4295    0.0120
  6                F                E                CONDUIT          100.0    0.8610    0.0120
  7                G                F                CONDUIT          100.0    0.0003    0.0120
  8                H                G                CONDUIT          100.0    0.4315    0.0120
  9                I                H                CONDUIT          100.0    0.4321    0.0120
  20               T                S                TYPE3 PUMP  
  
  
  *********************
  Cross Section Summary
  *********************
                                        Full     Full     Hyd.     Max.   No. of     Full
  Conduit          Shape               Depth     Area     Rad.    Width  Barrels     Flow
  ---------------------------------------------------------------------------------------
  1                FORCE_MAIN           2.00     3.14     0.50     2.00        1 27061.55
  10               FORCE_MAIN           2.00     3.14     0.50     2.00        1 15605.10
  11               FORCE_MAIN           2.00     3.14     0.50     2.00        1   212.97
  12               FORCE_MAIN           2.00     3.14     0.50     2.00        1 10745.64
  13               FORCE_MAIN           2.00     3.14     0.50     2.00        1 10754.34
  14               FORCE_MAIN           2.00     3.14     0.50     2.00        1 10763.07
  15               FORCE_MAIN           2.00     3.14     0.50     2.00        1 10771.78
  16               FORCE_MAIN           2.00     3.14     0.50     2.00        1 10780.53
  17               FORCE_MAIN           2.00     3.14     0.50     2.00        1 10789.28
  18               FORCE_MAIN           2.00     3.14     0.50     2.00        1 10798.01
  19               FORCE_MAIN           2.00     3.14     0.50     2.00        1 10806.78
  2                FORCE_MAIN           2.00     3.14     0.50     2.00        1 10658.87
  3                FORCE_MAIN           2.00     3.14     0.50     2.00        1 10667.51
  4                FORCE_MAIN           2.00     3.14     0.50     2.00        1 10676.17
  5                FORCE_MAIN           2.00     3.14     0.50     2.00        1 10684.83
  6                FORCE_MAIN           2.00     3.14     0.50     2.00        1 15553.74
  7                FORCE_MAIN           2.00     3.14     0.50     2.00        1   212.97
  8                FORCE_MAIN           2.00     3.14     0.50     2.00        1 10710.85
  9                FORCE_MAIN           2.00     3.14     0.50     2.00        1 10719.53
  
  
  ****************
  Analysis Options
  ****************
  Flow Units ............... LPS
  Process Models:
    Rainfall/Runoff ........ NO
    RDII ................... NO
    Snowmelt ............... NO
    Groundwater ............ NO
    Flow Routing ........... YES
    Ponding Allowed ........ NO
    Water Quality .......... NO
  Flow Routing Method ...... DYNWAVE
  Surcharge Method ......... EXTRAN
  Starting Date ............ 02/18/2013 00:00:00
  Ending Date .............. 02/18/2013 03:00:00
  Antecedent Dry Days ...... 0.0
  Report Time Step ......... 00:00:10
  Routing Time Step ........ 1.00 sec
  Variable Time Step ....... YES
  Maximum Trials ........... 8
  Number of Threads ........ 1
  Head Tolerance ........... 0.000010 m
  
  
  **************************        Volume        Volume
  Flow Routing Continuity        hectare-m      10^6 ltr
  **************************     ---------     ---------
  Dry Weather Inflow .......         0.000         0.000
  Wet Weather Inflow .......         0.000         0.000
  Groundwater Inflow .......         0.000         0.000
  RDII Inflow ..............         0.000         0.000
  External Inflow ..........         0.003         0.034
  External Outflow .........         0.002         0.017
  Flooding Loss ............         0.000         0.000
  Evaporation Loss .........         0.000         0.000
  Exfiltration Loss ........         0.000         0.000
  Initial Stored Volume ....         0.000         0.000
  Final Stored Volume ......         0.002         0.023
  Continuity Error (%) .....       -15.841
  
  
  *************************
  Highest Continuity Errors
  *************************
  Node G (14.56%)
  Node K (12.15%)
  Node R (4.10%)
  Node B (3.37%)
  Node C (3.07%)
  
  
  ***************************
  Time-Step Critical Elements
  ***************************
  None
  
  
  ********************************
  Highest Flow Instability Indexes
  ********************************
  All links are stable.
  
  
  *********************************
  Most Frequent Nonconverging Nodes
  *********************************
  Convergence obtained at all time steps.
  
  
  *************************
  Routing Time Step Summary
  *************************
  Minimum Time Step           :     1.00 sec
  Average Time Step           :     1.00 sec
  Maximum Time Step           :     1.00 sec
  % of Time in Steady State   :     0.00
  Average Iterations per Step :     2.03
  % of Steps Not Converging   :     0.00
  Time Step Frequencies       :
      1.000 -  0.251 sec      :   100.00 %
      0.251 -  0.063 sec      :     0.00 %
      0.063 -  0.016 sec      :     0.00 %
      0.016 -  0.004 sec      :     0.00 %
      0.004 -  0.001 sec      :     0.00 %
  
  
  ******************
  Node Depth Summary
  ******************
  
  ---------------------------------------------------------------------------------
                                 Average  Maximum  Maximum  Time of Max    Reported
                                   Depth    Depth      HGL   Occurrence   Max Depth
  Node                 Type       Meters   Meters   Meters  days hr:min      Meters
  ---------------------------------------------------------------------------------
  A                    JUNCTION     0.01     0.02   284.66     0  03:00        0.02
  B                    JUNCTION     0.02     0.03   285.10     0  03:00        0.03
  C                    JUNCTION     0.02     0.03   285.53     0  03:00        0.03
  D                    JUNCTION     0.02     0.03   285.96     0  03:00        0.03
  E                    JUNCTION     0.02     0.03   286.39     0  03:00        0.03
  F                    JUNCTION     0.01     0.02   287.24     0  03:00        0.02
  G                    JUNCTION     0.05     0.08   287.30     0  03:00        0.08
  H                    JUNCTION     0.02     0.03   287.68     0  02:54        0.03
  I                    JUNCTION     0.02     0.03   288.11     0  02:53        0.03
  J                    JUNCTION     0.02     0.02   288.97     0  03:00        0.02
  K                    JUNCTION     0.06     0.08   289.03     0  02:58        0.08
  L                    JUNCTION     0.02     0.03   289.41     0  00:50        0.03
  M                    JUNCTION     0.02     0.03   289.85     0  00:40        0.03
  N                    JUNCTION     0.02     0.03   290.28     0  00:38        0.03
  O                    JUNCTION     0.02     0.03   290.72     0  00:37        0.03
  P                    JUNCTION     0.02     0.03   291.15     0  00:27        0.03
  Q                    JUNCTION     0.02     0.03   291.59     0  00:25        0.03
  R                    JUNCTION     0.02     0.03   292.03     0  00:23        0.03
  S                    JUNCTION     0.02     0.05   292.49     0  00:13        0.05
  OUTFALL              OUTFALL      0.00     0.01   282.25     0  03:00        0.01
  T                    STORAGE      1.47     2.00   294.44     0  02:59        2.00
  
  
  *******************
  Node Inflow Summary
  *******************
  
  -------------------------------------------------------------------------------------------------
                                  Maximum  Maximum                  Lateral       Total        Flow
                                  Lateral    Total  Time of Max      Inflow      Inflow     Balance
                                   Inflow   Inflow   Occurrence      Volume      Volume       Error
  Node                 Type           LPS      LPS  days hr:min    10^6 ltr    10^6 ltr     Percent
  -------------------------------------------------------------------------------------------------
  A                    JUNCTION      0.01     3.19     0  03:00    0.000108      0.0176       1.482
  B                    JUNCTION      0.01     3.18     0  03:00    0.000108      0.0181       3.488
  C                    JUNCTION      0.01     3.17     0  03:00    0.000108      0.0186       3.169
  D                    JUNCTION      0.01     3.16     0  03:00    0.000108       0.019       3.001
  E                    JUNCTION      0.01     3.15     0  03:00    0.000108      0.0195       2.860
  F                    JUNCTION      0.01     3.14     0  03:00    0.000108      0.0199       2.702
  G                    JUNCTION      0.01     3.13     0  02:54    0.000108      0.0231      17.041
  H                    JUNCTION      0.01     3.12     0  02:53    0.000108      0.0237       2.744
  I                    JUNCTION      0.01     3.11     0  03:00    0.000108      0.0241       2.229
  J                    JUNCTION      0.01     3.10     0  02:58    0.000108      0.0245       2.166
  K                    JUNCTION      0.01     3.10     0  00:50    0.000108      0.0278      13.825
  L                    JUNCTION      0.01     3.11     0  00:41    0.000108      0.0283       2.176
  M                    JUNCTION      0.01     3.11     0  00:38    0.000108      0.0287       1.888
  N                    JUNCTION      0.01     3.14     0  00:37    0.000108      0.0291       1.894
  O                    JUNCTION      0.01     3.23     0  00:35    0.000108      0.0296       1.913
  P                    JUNCTION      0.01     3.51     0  00:25    0.000108        0.03       1.939
  Q                    JUNCTION      0.01     4.39     0  00:23    0.000108      0.0305       2.021
  R                    JUNCTION      0.01     8.33     0  00:13    0.000108      0.0317       4.277
  S                    JUNCTION      0.01     9.01     0  00:11    0.000108      0.0308      -2.498
  OUTFALL              OUTFALL       0.00     3.19     0  03:00           0      0.0174       0.000
  T                    STORAGE       3.00     3.00     0  00:00      0.0324      0.0324       0.001
  
  
  **********************
  Node Surcharge Summary
  **********************
  
  No nodes were surcharged.
  
  
  *********************
  Node Flooding Summary
  *********************
  
  No nodes were flooded.
  
  
  **********************
  Storage Volume Summary
  **********************
  
  ------------------------------------------------------------------------------------------------
                         Average    Avg   Evap  Exfil     Maximum    Max    Time of Max    Maximum
                          Volume   Pcnt   Pcnt   Pcnt      Volume   Pcnt     Occurrence    Outflow
  Storage Unit           1000 mł   Full   Loss   Loss     1000 mł   Full    days hr:min        LPS
  ------------------------------------------------------------------------------------------------
  T                        0.001   14.7    0.0    0.0       0.002   20.0       0  02:59       9.00
  
  
  ***********************
  Outfall Loading Summary
  ***********************
  
  -----------------------------------------------------------
                         Flow       Avg       Max       Total
                         Freq      Flow      Flow      Volume
  Outfall Node           Pcnt       LPS       LPS    10^6 ltr
  -----------------------------------------------------------
  OUTFALL               99.30      1.62      3.19       0.017
  -----------------------------------------------------------
  System                99.30      1.62      3.19       0.017
  
  
  ********************
  Link Flow Summary
  ********************
  
  -----------------------------------------------------------------------------
                                 Maximum  Time of Max   Maximum    Max/    Max/
                                  |Flow|   Occurrence   |Veloc|    Full    Full
  Link                 Type          LPS  days hr:min     m/sec    Flow   Depth
  -----------------------------------------------------------------------------
  1                    CONDUIT      3.19     0  03:00      0.95    0.00    0.01
  10                   CONDUIT      3.10     0  03:00      0.43    0.00    0.01
  11                   CONDUIT      3.09     0  02:58      0.15    0.01    0.02
  12                   CONDUIT      3.09     0  00:50      0.24    0.00    0.03
  13                   CONDUIT      3.10     0  00:41      0.39    0.00    0.01
  14                   CONDUIT      3.10     0  00:38      0.38    0.00    0.01
  15                   CONDUIT      3.13     0  00:37      0.39    0.00    0.01
  16                   CONDUIT      3.22     0  00:35      0.40    0.00    0.01
  17                   CONDUIT      3.50     0  00:25      0.43    0.00    0.01
  18                   CONDUIT      4.38     0  00:23      0.51    0.00    0.01
  19                   CONDUIT      8.32     0  00:13      0.65    0.00    0.02
  2                    CONDUIT      3.18     0  03:00      0.46    0.00    0.01
  3                    CONDUIT      3.17     0  03:00      0.36    0.00    0.01
  4                    CONDUIT      3.16     0  03:00      0.38    0.00    0.01
  5                    CONDUIT      3.15     0  03:00      0.38    0.00    0.01
  6                    CONDUIT      3.14     0  03:00      0.44    0.00    0.01
  7                    CONDUIT      3.13     0  03:00      0.15    0.01    0.02
  8                    CONDUIT      3.12     0  02:54      0.19    0.00    0.03
  9                    CONDUIT      3.11     0  02:53      0.38    0.00    0.01
  20                   PUMP         9.00     0  00:11              1.00
  
  
  ***************************
  Flow Classification Summary
  ***************************
  
  -------------------------------------------------------------------------------------
                      Adjusted    ---------- Fraction of Time in Flow Class ---------- 
                       /Actual         Up    Down  Sub   Sup   Up    Down  Norm  Inlet 
  Conduit               Length    Dry  Dry   Dry   Crit  Crit  Crit  Crit  Ltd   Ctrl  
  -------------------------------------------------------------------------------------
  1                       1.00   0.00  0.00  0.00  0.00  1.00  0.00  0.00  0.00  0.00
  10                      1.00   0.00  0.00  0.00  1.00  0.00  0.00  0.00  1.00  0.00
  11                      1.00   0.00  0.00  0.00  1.00  0.00  0.00  0.00  0.00  0.00
  12                      1.00   0.00  0.00  0.00  1.00  0.00  0.00  0.00  1.00  0.00
  13                      1.00   0.00  0.00  0.00  1.00  0.00  0.00  0.00  0.79  0.00
  14                      1.00   0.00  0.00  0.00  1.00  0.00  0.00  0.00  0.62  0.00
  15                      1.00   0.00  0.00  0.00  1.00  0.00  0.00  0.00  0.48  0.00
  16                      1.00   0.00  0.00  0.00  1.00  0.00  0.00  0.00  0.47  0.00
  17                      1.00   0.00  0.00  0.00  0.99  0.01  0.00  0.00  0.47  0.00
  18                      1.00   0.00  0.00  0.00  0.89  0.11  0.00  0.00  0.53  0.00
  19                      1.00   0.00  0.00  0.00  0.69  0.31  0.00  0.00  0.61  0.00
  2                       1.00   0.00  0.00  0.00  0.53  0.47  0.00  0.00  0.00  0.00
  3                       1.00   0.00  0.00  0.00  1.00  0.00  0.00  0.00  1.00  0.00
  4                       1.00   0.00  0.00  0.00  1.00  0.00  0.00  0.00  0.53  0.00
  5                       1.00   0.00  0.00  0.00  1.00  0.00  0.00  0.00  0.58  0.00
  6                       1.00   0.00  0.00  0.00  1.00  0.00  0.00  0.00  1.00  0.00
  7                       1.00   0.00  0.00  0.00  1.00  0.00  0.00  0.00  0.00  0.00
  8                       1.00   0.00  0.00  0.00  1.00  0.00  0.00  0.00  1.00  0.00
  9                       1.00   0.00  0.00  0.00  1.00  0.00  0.00  0.00  0.60  0.00
  
  
  *************************
  Conduit Surcharge Summary
  *************************
  
  No conduits were surcharged.
  
  
  ***************
  Pumping Summary
  ***************
  
  ---------------------------------------------------------------------------------------------------------
                                                  Min       Avg       Max     Total     Power    % Time Off
                        Percent   Number of      Flow      Flow      Flow    Volume     Usage    Pump Curve
  Pump                 Utilized   Start-Ups       LPS       LPS       LPS  10^6 ltr     Kw-hr    Low   High
  ---------------------------------------------------------------------------------------------------------
  20                      31.60          21      0.00      9.00      9.00     0.031      0.12    0.0  100.0
  

  Analysis begun on:  Wed Jun 24 16:59:30 2026
  Analysis ended on:  Wed Jun 24 16:59:30 2026
  Total elapsed time: < 1 sec