
  EPA STORM WATER MANAGEMENT MODEL - VERSION 5.2 (Build 5.2.4)
  ------------------------------------------------------------

  
  ****************
  Analysis Options
  ****************
  Flow Units ............... CFS
  Process Models:
    Rainfall/Runoff ........ NO
    RDII ................... NO
    Snowmelt ............... NO
    Groundwater ............ NO
    Flow Routing ........... YES
    Ponding Allowed ........ YES
    Water Quality .......... NO
  Flow Routing Method ...... DYNWAVE
  Surcharge Method ......... EXTRAN
  Starting Date ............ 01/01/2002 00:00:00
  Ending Date .............. 01/01/2002 23:00:00
  Antecedent Dry Days ...... 5.0
  Report Time Step ......... 00:01:00
  Routing Time Step ........ 2.00 sec
  Variable Time Step ....... YES
  Maximum Trials ........... 8
  Number of Threads ........ 1
  Head Tolerance ........... 0.000100 ft
  
  
  **************************        Volume        Volume
  Flow Routing Continuity        acre-feet      10^6 gal
  **************************     ---------     ---------
  Dry Weather Inflow .......       135.366        44.111
  Wet Weather Inflow .......         0.000         0.000
  Groundwater Inflow .......         0.000         0.000
  RDII Inflow ..............         0.000         0.000
  External Inflow ..........         0.000         0.000
  External Outflow .........        39.057        12.727
  Flooding Loss ............        99.822        32.528
  Evaporation Loss .........         0.000         0.000
  Exfiltration Loss ........         0.000         0.000
  Initial Stored Volume ....         0.029         0.010
  Final Stored Volume ......         0.075         0.024
  Continuity Error (%) .....        -2.628
  
  
  *************************
  Highest Continuity Errors
  *************************
  Node 40 (-20.49%)
  Node 52 (-15.46%)
  
  
  ***************************
  Time-Step Critical Elements
  ***************************
  Node 52 (7.85%)
  Node 40 (4.49%)
  Link 45 (1.32%)
  
  
  ********************************
  Highest Flow Instability Indexes
  ********************************
  Link 17 (20)
  Link 19 (16)
  Link 47 (13)
  Link 13 (13)
  Link 11 (13)
  
  
  *********************************
  Most Frequent Nonconverging Nodes
  *********************************
  Node 14 (99.93%)
  Node 46 (99.66%)
  Node 20 (99.63%)
  Node 44 (99.61%)
  Node 10 (99.39%)
  
  
  *************************
  Routing Time Step Summary
  *************************
  Minimum Time Step           :     0.15 sec
  Average Time Step           :     1.86 sec
  Maximum Time Step           :     2.00 sec
  % of Time in Steady State   :     0.00
  Average Iterations per Step :     8.00
  % of Steps Not Converging   :    99.93
  Time Step Frequencies       :
      2.000 -  0.437 sec      :    99.49 %
      0.437 -  0.096 sec      :     0.51 %
      0.096 -  0.021 sec      :     0.00 %
      0.021 -  0.005 sec      :     0.00 %
      0.005 -  0.001 sec      :     0.00 %
  
  
  ******************
  Node Depth Summary
  ******************
  
  ---------------------------------------------------------------------------------
                                 Average  Maximum  Maximum  Time of Max    Reported
                                   Depth    Depth      HGL   Occurrence   Max Depth
  Node                 Type         Feet     Feet     Feet  days hr:min        Feet
  ---------------------------------------------------------------------------------
  10                   JUNCTION     6.91    29.51    43.97     0  05:27       15.15
  12                   JUNCTION     8.48    19.86    32.13     0  05:27       13.21
  16                   JUNCTION     8.02    33.05    46.59     0  05:27       18.33
  18                   JUNCTION     8.86    33.44    46.11     0  05:27       18.36
  20                   JUNCTION     7.73    24.79    38.11     0  05:27       14.20
  22                   JUNCTION     8.84     8.85    20.00     0  00:00        8.85
  26                   JUNCTION    17.77    39.69    54.45     0  07:00       31.47
  30                   JUNCTION    19.07    42.96    56.13     0  07:00       33.07
  36                   JUNCTION     1.69     1.69    20.00     0  00:00        1.69
  40                   JUNCTION     3.62    20.17    37.77     0  05:48       14.67
  42                   JUNCTION     8.76    31.14    43.71     0  05:27       17.00
  44                   JUNCTION     8.67    28.13    40.60     0  05:27       16.30
  46                   JUNCTION     8.52    23.13    35.49     0  05:27       14.63
  48                   JUNCTION     1.29     1.29    20.00     0  00:00        1.29
  50                   JUNCTION     2.08     2.08    20.00     0  00:00        2.08
  52                   JUNCTION     2.90    18.59    35.73     0  00:32       12.30
  14                   OUTFALL      1.00     1.00    11.10     0  00:00        1.00
  24                   DIVIDER      1.00     1.00    15.70     0  00:00        1.00
  8000                 STORAGE      1.57     2.12    15.77     0  06:02        2.12
  8002                 STORAGE      1.51     2.02    19.72     0  03:51        2.02
  8004                 STORAGE      1.48     2.04    19.04     0  09:39        2.04
  9000                 STORAGE      1.55     2.01    15.65     0  21:25        2.00
  
  
  *******************
  Node Inflow Summary
  *******************
  
  -------------------------------------------------------------------------------------------------
                                  Maximum  Maximum                  Lateral       Total        Flow
                                  Lateral    Total  Time of Max      Inflow      Inflow     Balance
                                   Inflow   Inflow   Occurrence      Volume      Volume       Error
  Node                 Type           CFS      CFS  days hr:min    10^6 gal    10^6 gal     Percent
  -------------------------------------------------------------------------------------------------
  10                   JUNCTION      0.00    12.36     0  00:02           0       0.955      -0.594
  12                   JUNCTION      0.00     8.06     0  05:27           0        1.75       0.027
  16                   JUNCTION      0.00    23.01     0  00:02           0        1.44      -0.860
  18                   JUNCTION      0.00    15.64     0  00:02           0        1.58      -0.451
  20                   JUNCTION      0.00     4.12     0  05:39           0       0.991       0.167
  22                   JUNCTION     18.00    43.26     0  07:10         6.3        15.1       0.009
  26                   JUNCTION      0.00    21.00     0  00:00           0       0.968      -0.090
  30                   JUNCTION     18.00    18.08     0  07:00         6.3        7.27       0.017
  36                   JUNCTION     18.00    18.00     0  07:00         6.3         6.3       0.007
  40                   JUNCTION      0.00    42.00     0  00:00           0        2.92     -17.006
  42                   JUNCTION      0.00     3.33     0  00:02           0       0.712       0.032
  44                   JUNCTION      0.00     3.85     0  00:01           0       0.729       0.148
  46                   JUNCTION      0.00     4.23     0  00:01           0       0.743       0.021
  48                   JUNCTION     18.00    18.00     0  07:00         6.3         6.3       0.005
  50                   JUNCTION     18.00    18.00     0  07:00         6.3        6.34       0.013
  52                   JUNCTION      0.00    42.00     0  00:00           0        3.88     -13.390
  14                   OUTFALL      18.00    28.38     0  07:00         6.3        12.7       0.000
  24                   DIVIDER      18.00    59.75     0  07:38         6.3        14.3       0.404
  8000                 STORAGE       0.00     2.54     0  03:41           0       0.972       0.019
  8002                 STORAGE       0.00     6.11     0  05:10           0        2.92       0.189
  8004                 STORAGE       0.00     7.24     0  12:58           0        3.88       0.061
  9000                 STORAGE       0.00     3.30     0  02:14           0        1.36       0.152
  
  
  **********************
  Node Surcharge Summary
  **********************
  
  Surcharging occurs when water rises above the top of the highest conduit.
  ---------------------------------------------------------------------
                                               Max. Height   Min. Depth
                                   Hours       Above Crown    Below Rim
  Node                 Type      Surcharged           Feet         Feet
  ---------------------------------------------------------------------
  10                   JUNCTION       22.79         28.511        0.000
  12                   JUNCTION       22.98         18.864        0.000
  16                   JUNCTION       20.87         31.046        0.000
  18                   JUNCTION       22.95         31.444        0.000
  20                   JUNCTION       22.97         23.794        0.000
  22                   JUNCTION       22.99          7.852        0.000
  26                   JUNCTION       22.98         38.686        0.000
  30                   JUNCTION       22.99         41.961        0.000
  36                   JUNCTION       23.00          0.693        0.000
  40                   JUNCTION        8.16         19.171        0.000
  42                   JUNCTION       22.96         30.139        0.000
  44                   JUNCTION       22.97         27.128        0.000
  46                   JUNCTION       22.98         22.126        0.000
  48                   JUNCTION       23.00          0.286        0.000
  50                   JUNCTION       23.00          1.083        0.000
  52                   JUNCTION        7.68         17.586        0.000
  24                   DIVIDER        22.99          0.000        0.000
  
  
  *********************
  Node Flooding Summary
  *********************
  
  Flooding refers to all water that overflows a node, whether it ponds or not.
  --------------------------------------------------------------------------
                                                             Total   Maximum
                                 Maximum   Time of Max       Flood    Ponded
                        Hours       Rate    Occurrence      Volume     Depth
  Node                 Flooded       CFS   days hr:min    10^6 gal      Feet
  --------------------------------------------------------------------------
  22                     22.93     32.88      0  07:10       8.522     0.000
  36                     23.00     14.66      0  07:53       3.380     0.000
  48                     23.00     18.00      0  08:00       6.261     0.000
  50                     22.68     12.71      0  07:51       2.458     0.000
  24                     22.99     58.56      0  07:50      11.962     0.000
  
  
  **********************
  Storage Volume Summary
  **********************
  
  ------------------------------------------------------------------------------------------------
                         Average    Avg   Evap  Exfil     Maximum    Max    Time of Max    Maximum
                          Volume   Pcnt   Pcnt   Pcnt      Volume   Pcnt     Occurrence    Outflow
  Storage Unit          1000 ftł   Full   Loss   Loss    1000 ftł   Full    days hr:min        CFS
  ------------------------------------------------------------------------------------------------
  8000                     0.436    7.1    0.0    0.0       0.592    9.7       0  06:02      21.00
  8002                     0.420    6.9    0.0    0.0       0.564    9.2       0  03:51      42.00
  8004                     0.411    6.7    0.0    0.0       0.568    9.3       0  09:39      42.00
  9000                     0.431    7.0    0.0    0.0       0.559    9.1       0  21:25      21.00
  
  
  ***********************
  Outfall Loading Summary
  ***********************
  
  -----------------------------------------------------------
                         Flow       Avg       Max       Total
                         Freq      Flow      Flow      Volume
  Outfall Node           Pcnt       CFS       CFS    10^6 gal
  -----------------------------------------------------------
  14                   100.00     20.55     28.38      12.726
  -----------------------------------------------------------
  System               100.00     20.55     28.38      12.726
  
  
  ********************
  Link Flow Summary
  ********************
  
  -----------------------------------------------------------------------------
                                 Maximum  Time of Max   Maximum    Max/    Max/
                                  |Flow|   Occurrence   |Veloc|    Full    Full
  Link                 Type          CFS  days hr:min    ft/sec    Flow   Depth
  -----------------------------------------------------------------------------
  11                   CONDUIT      4.12     0  05:39      5.25    0.93    1.00
  13                   CONDUIT      8.58     0  05:27     10.93    1.76    1.00
  17                   CONDUIT     11.11     0  00:02      3.88    0.41    1.00
  19                   CONDUIT      9.64     0  00:02     13.85    1.25    1.00
  21                   CONDUIT      4.53     0  05:27      5.77    1.02    1.00
  23                   CONDUIT     10.38     0  00:27     13.22    2.91    1.00
  25                   CONDUIT      3.30     0  02:14      4.20    1.00    1.00
  31                   CONDUIT      3.42     0  00:03      5.93    0.71    1.00
  33                   CONDUIT     18.19     0  07:00     23.16    3.82    1.00
  35                   CONDUIT      2.54     0  03:41      3.23    1.00    1.00
  43                   CONDUIT     17.49     0  21:58     22.27    2.13    1.00
  45                   CONDUIT      6.11     0  05:10      7.78    1.45    1.00
  47                   CONDUIT      3.15     0  17:20      4.52    2.69    1.00
  49                   CONDUIT      3.33     0  00:02      5.79    2.70    1.00
  51                   CONDUIT      3.85     0  00:01      5.31    3.63    1.00
  53                   CONDUIT      4.23     0  00:01      7.18    2.91    1.00
  55                   CONDUIT      4.80     0  00:00      7.20    1.07    1.00
  57                   CONDUIT      7.24     0  12:58      9.21    1.47    1.00
  59                   CONDUIT     24.34     0  15:13     31.00    2.13    1.00
  5000                 PUMP        21.00     0  00:00              1.00
  5002                 PUMP        21.00     0  00:00              1.00
  5004                 PUMP        21.00     0  00:00              1.00
  5006                 PUMP        21.00     0  00:00              1.00
  5008                 PUMP        21.00     0  00:00              1.00
  5010                 PUMP        21.00     0  00:00              1.00
  
  
  ***************************
  Flow Classification Summary
  ***************************
  
  -------------------------------------------------------------------------------------
                      Adjusted    ---------- Fraction of Time in Flow Class ---------- 
                       /Actual         Up    Down  Sub   Sup   Up    Down  Norm  Inlet 
  Conduit               Length    Dry  Dry   Dry   Crit  Crit  Crit  Crit  Ltd   Ctrl  
  -------------------------------------------------------------------------------------
  11                      1.00   0.00  0.00  0.00  1.00  0.00  0.00  0.00  0.00  0.00
  13                      1.00   0.00  0.00  0.00  1.00  0.00  0.00  0.00  0.00  0.00
  17                      1.00   0.00  0.00  0.00  1.00  0.00  0.00  0.00  0.00  0.00
  19                      1.00   0.00  0.00  0.00  1.00  0.00  0.00  0.00  0.00  0.00
  21                      1.00   0.00  0.00  0.00  1.00  0.00  0.00  0.00  0.00  0.00
  23                      1.00   0.00  0.00  0.00  1.00  0.00  0.00  0.00  0.00  0.00
  25                      1.00   0.00  0.00  0.00  1.00  0.00  0.00  0.00  0.00  0.00
  31                      1.00   0.00  0.00  0.00  1.00  0.00  0.00  0.00  0.00  0.00
  33                      1.00   0.00  0.00  0.00  1.00  0.00  0.00  0.00  0.00  0.00
  35                      1.00   0.00  0.00  0.00  1.00  0.00  0.00  0.00  0.00  0.00
  43                      1.00   0.00  0.00  0.00  0.95  0.05  0.00  0.00  0.69  0.00
  45                      1.00   0.00  0.00  0.00  1.00  0.00  0.00  0.00  0.00  0.00
  47                      1.00   0.00  0.00  0.00  1.00  0.00  0.00  0.00  0.00  0.00
  49                      1.00   0.00  0.00  0.00  1.00  0.00  0.00  0.00  0.00  0.00
  51                      1.00   0.00  0.00  0.00  1.00  0.00  0.00  0.00  0.00  0.00
  53                      1.00   0.00  0.00  0.00  1.00  0.00  0.00  0.00  0.00  0.00
  55                      1.00   0.00  0.00  0.00  1.00  0.00  0.00  0.00  0.00  0.00
  57                      1.00   0.00  0.00  0.00  0.97  0.03  0.00  0.00  0.00  0.00
  59                      1.00   0.00  0.00  0.00  0.97  0.03  0.00  0.00  0.72  0.00
  
  
  *************************
  Conduit Surcharge Summary
  *************************
  
  ----------------------------------------------------------------------------
                                                           Hours        Hours 
                         --------- Hours Full --------   Above Full   Capacity
  Conduit                Both Ends  Upstream  Dnstream   Normal Flow   Limited
  ----------------------------------------------------------------------------
  11                         22.48     22.48     22.97      0.01         2.63
  13                         22.98     22.98     22.99      7.26         8.95
  17                         20.79     20.79     22.95      0.01         0.32
  19                         22.48     22.48     22.96      0.01         0.20
  21                         22.97     22.97     22.98      0.01         2.49
  23                         22.99     22.99     22.99     22.99        22.99
  25                         22.50     22.99     22.51      0.01         0.01
  31                         22.96     22.96     22.99      0.01         0.09
  33                         22.99     22.99     22.99     22.99        22.94
  35                         22.96     22.99     22.98      0.01         0.01
  43                          6.76      6.76     22.99      7.67         6.76
  45                         21.58     23.00     21.58     15.11        13.06
  47                         22.96     22.96     22.96      8.40        10.96
  49                         22.96     22.96     22.97      8.22        11.08
  51                         22.97     22.97     22.98      8.53        11.81
  53                         22.98     22.98     22.98      7.84        10.99
  55                         23.00     23.00     23.00      0.01         0.01
  57                         21.00     23.00     21.00     23.00        21.00
  59                          6.43      6.43     22.99      7.67         6.43
  
  
  ***************
  Pumping Summary
  ***************
  
  ---------------------------------------------------------------------------------------------------------
                                                  Min       Avg       Max     Total     Power    % Time Off
                        Percent   Number of      Flow      Flow      Flow    Volume     Usage    Pump Curve
  Pump                 Utilized   Start-Ups       CFS       CFS       CFS  10^6 gal     Kw-hr    Low   High
  ---------------------------------------------------------------------------------------------------------
  5000                    33.31         410      0.00      6.58     21.00     1.358     44.52    0.0    0.0
  5002                    77.97          44      0.00      2.00     21.00     0.968     50.40    0.0    0.0
  5004                    29.43         911      0.00      8.05     21.00     1.465     45.22    0.0    0.1
  5006                    27.97        1155      0.00     11.21     21.00     1.942     52.33    0.0    0.0
  5008                    29.43         911      0.00      8.05     21.00     1.465     45.22    0.0    0.1
  5010                    27.97        1155      0.00     11.21     21.00     1.942     52.33    0.0    0.0
  

  Analysis begun on:  Wed Jun 24 17:00:00 2026
  Analysis ended on:  Wed Jun 24 17:00:01 2026
  Total elapsed time: 00:00:01