
  EPA STORM WATER MANAGEMENT MODEL - VERSION 5.2 (Build 5.2.4)
  ------------------------------------------------------------

  
  ****************
  Analysis Options
  ****************
  Flow Units ............... CFS
  Process Models:
    Rainfall/Runoff ........ YES
    RDII ................... NO
    Snowmelt ............... NO
    Groundwater ............ YES
    Flow Routing ........... NO
    Water Quality .......... NO
  Infiltration Method ...... HORTON
  Surcharge Method ......... EXTRAN
  Starting Date ............ 11/01/2010 00:00:00
  Ending Date .............. 11/02/2010 23:00:00
  Antecedent Dry Days ...... 0.0
  Report Time Step ......... 00:12:00
  Wet Time Step ............ 00:12:00
  Dry Time Step ............ 00:12:00
  
  
  **************************        Volume         Depth
  Runoff Quantity Continuity     acre-feet        inches
  **************************     ---------       -------
  Initial LID Storage ......         0.003         0.143
  Total Precipitation ......         0.022         1.174
  Evaporation Loss .........         0.000         0.005
  Infiltration Loss ........         0.012         0.656
  Surface Runoff ...........         0.008         0.435
  Final Storage ............         0.004         0.224
  Continuity Error (%) .....        -0.272
  
  
  **************************        Volume        Volume
  Flow Routing Continuity        acre-feet      10^6 gal
  **************************     ---------     ---------
  Dry Weather Inflow .......         0.000         0.000
  Wet Weather Inflow .......         0.008         0.003
  Groundwater Inflow .......         0.000         0.000
  RDII Inflow ..............         0.000         0.000
  External Inflow ..........         0.000         0.000
  External Outflow .........         0.008         0.003
  Flooding Loss ............         0.000         0.000
  Evaporation Loss .........         0.000         0.000
  Exfiltration Loss ........         0.000         0.000
  Initial Stored Volume ....         0.000         0.000
  Final Stored Volume ......         0.000         0.000
  Continuity Error (%) .....         0.000
  
  
  ***************************
  Subcatchment Runoff Summary
  ***************************
  
  ------------------------------------------------------------------------------------------------------------------------------
                            Total      Total      Total      Total     Imperv       Perv      Total       Total     Peak  Runoff
                           Precip      Runon       Evap      Infil     Runoff     Runoff     Runoff      Runoff   Runoff   Coeff
  Subcatchment                 in         in         in         in         in         in         in    10^6 gal      CFS
  ------------------------------------------------------------------------------------------------------------------------------
  Post                       1.17       0.00       0.01       0.72       0.56       0.00       0.28        0.00     0.02   0.240
  Pre                        1.17       0.00       0.00       0.59       0.59       0.00       0.59        0.00     0.05   0.502
  

  ***********************
  LID Performance Summary
  ***********************

  --------------------------------------------------------------------------------------------------------------------
                                         Total      Evap     Infil   Surface    Drain    Initial     Final  Continuity
                                        Inflow      Loss      Loss   Outflow   Outflow   Storage   Storage       Error
  Subcatchment      LID Control             in        in        in        in        in        in        in           %
  --------------------------------------------------------------------------------------------------------------------
  Post              RG33                  9.11      0.08      4.47      0.00      0.00      8.05     12.63       -0.06

  Analysis begun on:  Wed Jun 24 16:59:19 2026
  Analysis ended on:  Wed Jun 24 16:59:19 2026
  Total elapsed time: < 1 sec