
  EPA STORM WATER MANAGEMENT MODEL - VERSION 5.2 (Build 5.2.4)
  ------------------------------------------------------------

  
  ERROR 235: invalid infiltration parameters at line 176 of [INFIL] section:
  25              	3.0       	0.5       	4         


  Analysis begun on:  Wed Jun 24 16:59:30 2026
  Analysis ended on:  Wed Jun 24 16:59:30 2026
  Total elapsed time: < 1 sec