
  EPA STORM WATER MANAGEMENT MODEL - VERSION 5.1 (Build 5.1.013)
  --------------------------------------------------------------

  WARNING 03: negative offset ignored for Link CDT-21
  WARNING 03: negative offset ignored for Link CDT-23
  WARNING 03: negative offset ignored for Link CDT-25
  WARNING 03: negative offset ignored for Link CONNECT19
  WARNING 03: negative offset ignored for Link CONNECT21
  WARNING 03: negative offset ignored for Link MA01014103S
  WARNING 03: negative offset ignored for Link MA01014403S
  WARNING 03: negative offset ignored for Link MA010151X
  WARNING 03: negative offset ignored for Link MA01015702S
  WARNING 03: negative offset ignored for Link MA01015704S
  WARNING 03: negative offset ignored for Link MA01015706S
  WARNING 03: negative offset ignored for Link MA01015710S
  WARNING 03: negative offset ignored for Link MA01015714S
  WARNING 03: negative offset ignored for Link MA01015725S
  WARNING 03: negative offset ignored for Link MA01015730S
  WARNING 03: negative offset ignored for Link MA01015732S
  WARNING 03: negative offset ignored for Link MA01015734S
  WARNING 03: negative offset ignored for Link MA01015735S
  WARNING 03: negative offset ignored for Link MA01015741S
  WARNING 03: negative offset ignored for Link MA01015742S
  WARNING 03: negative offset ignored for Link MA01015747S
  WARNING 03: negative offset ignored for Link MA010157X
  WARNING 03: negative offset ignored for Link MA01015913S
  WARNING 03: negative offset ignored for Link MA01015916S
  WARNING 03: negative offset ignored for Link MA01015918S
  WARNING 03: negative offset ignored for Link MA01015920S
  WARNING 03: negative offset ignored for Link MA01015925S
  WARNING 03: negative offset ignored for Link MA01016001S
  WARNING 03: negative offset ignored for Link MA01016006S
  WARNING 03: negative offset ignored for Link MA01016018S-1
  WARNING 03: negative offset ignored for Link MA01016022S
  WARNING 03: negative offset ignored for Link MA01016044S
  WARNING 03: negative offset ignored for Link MA01016052S
  WARNING 03: negative offset ignored for Link MA01016053S
  WARNING 03: negative offset ignored for Link MA02010804S
  WARNING 03: negative offset ignored for Link MA02011601S-N1
  WARNING 03: negative offset ignored for Link MA02011603S
  WARNING 03: negative offset ignored for Link MA02011605S
  WARNING 03: negative offset ignored for Link MA02012502S
  WARNING 03: negative offset ignored for Link MA02012505S
  WARNING 03: negative offset ignored for Link MA020129X
  WARNING 03: negative offset ignored for Link MA02013404S
  WARNING 03: negative offset ignored for Link MA020135X
  WARNING 03: negative offset ignored for Link MA020140X
  WARNING 03: negative offset ignored for Link MA02014804S
  WARNING 03: negative offset ignored for Link MA02015402S
  WARNING 03: negative offset ignored for Link MA02015412S
  WARNING 03: negative offset ignored for Link MA0301202S
  WARNING 02: maximum depth increased for Node CONNECT
  WARNING 02: maximum depth increased for Node CONNECT13
  WARNING 02: maximum depth increased for Node CONNECT18
  WARNING 02: maximum depth increased for Node CONNECT19
  WARNING 02: maximum depth increased for Node CONNECT20
  WARNING 02: maximum depth increased for Node CONNECT21
  WARNING 02: maximum depth increased for Node CONNECT23
  WARNING 02: maximum depth increased for Node CONNECT24
  WARNING 02: maximum depth increased for Node CONNECT25
  WARNING 02: maximum depth increased for Node CONNECT27
  WARNING 02: maximum depth increased for Node CONNECT8
  WARNING 02: maximum depth increased for Node MA010110X
  WARNING 02: maximum depth increased for Node MA010111X
  WARNING 02: maximum depth increased for Node MA010112X
  WARNING 02: maximum depth increased for Node MA010113X
  WARNING 02: maximum depth increased for Node MA010114X
  WARNING 02: maximum depth increased for Node MA010115X
  WARNING 02: maximum depth increased for Node MA010116X
  WARNING 02: maximum depth increased for Node MA010117X
  WARNING 02: maximum depth increased for Node MA010118X
  WARNING 02: maximum depth increased for Node MA010119X
  WARNING 02: maximum depth increased for Node MA010120X
  WARNING 02: maximum depth increased for Node MA010121X
  WARNING 02: maximum depth increased for Node MA010122X
  WARNING 02: maximum depth increased for Node MA010123X
  WARNING 02: maximum depth increased for Node MA010124X
  WARNING 02: maximum depth increased for Node MA010125X
  WARNING 02: maximum depth increased for Node MA010126X
  WARNING 02: maximum depth increased for Node MA010127X
  WARNING 02: maximum depth increased for Node MA010128X
  WARNING 02: maximum depth increased for Node MA010129X
  WARNING 02: maximum depth increased for Node MA010130X
  WARNING 02: maximum depth increased for Node MA010131X
  WARNING 02: maximum depth increased for Node MA010132X
  WARNING 02: maximum depth increased for Node MA010133X
  WARNING 02: maximum depth increased for Node MA010134X
  WARNING 02: maximum depth increased for Node MA010135X
  WARNING 02: maximum depth increased for Node MA010136X
  WARNING 02: maximum depth increased for Node MA010137X
  WARNING 02: maximum depth increased for Node MA010138X
  WARNING 02: maximum depth increased for Node MA010139X
  WARNING 02: maximum depth increased for Node MA010140X
  WARNING 02: maximum depth increased for Node MA01014101S
  WARNING 02: maximum depth increased for Node MA010141X
  WARNING 02: maximum depth increased for Node MA010142X
  WARNING 02: maximum depth increased for Node MA010143X
  WARNING 02: maximum depth increased for Node MA01014401S
  WARNING 02: maximum depth increased for Node MA010144X
  WARNING 02: maximum depth increased for Node MA010145X
  WARNING 02: maximum depth increased for Node MA010146X
  WARNING 02: maximum depth increased for Node MA010147X
  WARNING 02: maximum depth increased for Node MA010148X
  WARNING 02: maximum depth increased for Node MA010149X
  WARNING 02: maximum depth increased for Node MA010150X
  WARNING 02: maximum depth increased for Node MA010151X
  WARNING 02: maximum depth increased for Node MA010152X
  WARNING 02: maximum depth increased for Node MA010153X
  WARNING 02: maximum depth increased for Node MA010154X
  WARNING 02: maximum depth increased for Node MA010155X
  WARNING 02: maximum depth increased for Node MA010156X
  WARNING 02: maximum depth increased for Node MA010157X
  WARNING 02: maximum depth increased for Node MA010158X
  WARNING 02: maximum depth increased for Node MA01015910S
  WARNING 02: maximum depth increased for Node MA01015913S
  WARNING 02: maximum depth increased for Node MA01015941S
  WARNING 02: maximum depth increased for Node MA01016023S
  WARNING 02: maximum depth increased for Node MA020101X
  WARNING 02: maximum depth increased for Node MA020102X
  WARNING 02: maximum depth increased for Node MA020103X
  WARNING 02: maximum depth increased for Node MA020105X
  WARNING 02: maximum depth increased for Node MA020107X
  WARNING 02: maximum depth increased for Node MA020108X
  WARNING 02: maximum depth increased for Node MA020109X
  WARNING 02: maximum depth increased for Node MA020110X
  WARNING 02: maximum depth increased for Node MA020112X
  WARNING 02: maximum depth increased for Node MA020113X
  WARNING 02: maximum depth increased for Node MA020114X
  WARNING 02: maximum depth increased for Node MA020115X
  WARNING 02: maximum depth increased for Node MA020116X
  WARNING 02: maximum depth increased for Node MA020117X
  WARNING 02: maximum depth increased for Node MA020118X
  WARNING 02: maximum depth increased for Node MA020119X
  WARNING 02: maximum depth increased for Node MA020120X
  WARNING 02: maximum depth increased for Node MA020121X
  WARNING 02: maximum depth increased for Node MA020122X
  WARNING 02: maximum depth increased for Node MA020123X
  WARNING 02: maximum depth increased for Node MA020124X
  WARNING 02: maximum depth increased for Node MA02012502S
  WARNING 02: maximum depth increased for Node MA02012504S
  WARNING 02: maximum depth increased for Node MA02012509S
  WARNING 02: maximum depth increased for Node MA020125X
  WARNING 02: maximum depth increased for Node MA020126X
  WARNING 02: maximum depth increased for Node MA020127X
  WARNING 02: maximum depth increased for Node MA020128X
  WARNING 02: maximum depth increased for Node MA020129X
  WARNING 02: maximum depth increased for Node MA020130X
  WARNING 02: maximum depth increased for Node MA020131X
  WARNING 02: maximum depth increased for Node MA020132X
  WARNING 02: maximum depth increased for Node MA020133X
  WARNING 02: maximum depth increased for Node MA02013403S
  WARNING 02: maximum depth increased for Node MA020134X
  WARNING 02: maximum depth increased for Node MA020135X
  WARNING 02: maximum depth increased for Node MA020136X
  WARNING 02: maximum depth increased for Node MA020137X
  WARNING 02: maximum depth increased for Node MA020138X
  WARNING 02: maximum depth increased for Node MA020139X
  WARNING 02: maximum depth increased for Node MA020140X
  WARNING 02: maximum depth increased for Node MA020141X
  WARNING 02: maximum depth increased for Node MA020142X
  WARNING 02: maximum depth increased for Node MA020143X
  WARNING 02: maximum depth increased for Node MA020144X
  WARNING 02: maximum depth increased for Node MA020145X
  WARNING 02: maximum depth increased for Node MA020147X
  WARNING 02: maximum depth increased for Node MA020148X
  WARNING 02: maximum depth increased for Node MA020149X
  WARNING 02: maximum depth increased for Node MA020150X
  WARNING 02: maximum depth increased for Node MA020151X
  WARNING 02: maximum depth increased for Node MA020152X
  WARNING 02: maximum depth increased for Node MA020153X
  WARNING 02: maximum depth increased for Node MA02015407S
  WARNING 02: maximum depth increased for Node MA020154X
  WARNING 02: maximum depth increased for Node MA030101X
  WARNING 02: maximum depth increased for Node MA030102X
  WARNING 02: maximum depth increased for Node MA030103X
  WARNING 02: maximum depth increased for Node MA030104X
  WARNING 02: maximum depth increased for Node MA030105X
  WARNING 02: maximum depth increased for Node MA030106X
  WARNING 02: maximum depth increased for Node MA030107X
  WARNING 02: maximum depth increased for Node MA030108X
  WARNING 02: maximum depth increased for Node MA030109X
  WARNING 02: maximum depth increased for Node MA030110X
  WARNING 02: maximum depth increased for Node MA030111X
  WARNING 02: maximum depth increased for Node MA030112X
  
  *********************************************************
  NOTE: The summary statistics displayed in this report are
  based on results found at every computational time step,  
  not just on results from each reporting time step.
  *********************************************************
  
  ****************
  Analysis Options
  ****************
  Flow Units ............... CFS
  Process Models:
    Rainfall/Runoff ........ YES
    RDII ................... NO
    Snowmelt ............... NO
    Groundwater ............ NO
    Flow Routing ........... YES
    Ponding Allowed ........ YES
    Water Quality .......... NO
  Infiltration Method ...... GREEN_AMPT
  Flow Routing Method ...... DYNWAVE
  Surcharge Method ......... EXTRAN
  Starting Date ............ 01/01/2002 00:00:00
  Ending Date .............. 01/02/2002 00:00:00
  Antecedent Dry Days ...... 5.0
  Report Time Step ......... 00:01:00
  Wet Time Step ............ 00:01:00
  Dry Time Step ............ 00:01:00
  Routing Time Step ........ 30.00 sec
  Variable Time Step ....... YES
  Maximum Trials ........... 10
  Number of Threads ........ 1
  Head Tolerance ........... 0.001000 ft
  
  
  **************************        Volume         Depth
  Runoff Quantity Continuity     acre-feet        inches
  **************************     ---------       -------
  Total Precipitation ......       523.206         5.565
  Evaporation Loss .........         0.000         0.000
  Infiltration Loss ........       267.343         2.844
  Surface Runoff ...........       253.989         2.702
  Final Storage ............         1.932         0.021
  Continuity Error (%) .....        -0.011
  
  
  **************************        Volume        Volume
  Flow Routing Continuity        acre-feet      10^6 gal
  **************************     ---------     ---------
  Dry Weather Inflow .......         0.000         0.000
  Wet Weather Inflow .......       253.908        82.740
  Groundwater Inflow .......         0.000         0.000
  RDII Inflow ..............         0.000         0.000
  External Inflow ..........         0.000         0.000
  External Outflow .........       198.674        64.741
  Flooding Loss ............        49.066        15.989
  Evaporation Loss .........         0.013         0.004
  Exfiltration Loss ........         0.000         0.000
  Initial Stored Volume ....         0.000         0.000
  Final Stored Volume ......         2.692         0.877
  Continuity Error (%) .....         1.364
  
  
  *************************
  Highest Continuity Errors
  *************************
  Node MA01015942S (98.28%)
  Node MA02012503S (1.78%)
  Node MA01016022S (1.68%)
  Node MA01016021S (-1.01%)
  
  
  ***************************
  Time-Step Critical Elements
  ***************************
  Link CDT-33 (52.44%)
  Link MA010129X (39.50%)
  Link MA010148X (1.81%)
  Link MA01015719S (1.01%)
  
  
  ********************************
  Highest Flow Instability Indexes
  ********************************
  Link MA02012503S (10)
  Link MA01016054S (7)
  Link MA01015735S (7)
  Link CONNECT11 (6)
  Link MA0301208S (6)
  
  
  *************************
  Routing Time Step Summary
  *************************
  Minimum Time Step           :     0.28 sec
  Average Time Step           :     5.62 sec
  Maximum Time Step           :    30.00 sec
  Percent in Steady State     :    -0.00
  Average Iterations per Step :     3.20
  Percent Not Converging      :     8.86
  
  
  ***************************
  Subcatchment Runoff Summary
  ***************************
  
  ------------------------------------------------------------------------------------------------------------------------------
                            Total      Total      Total      Total     Imperv       Perv      Total       Total     Peak  Runoff
                           Precip      Runon       Evap      Infil     Runoff     Runoff     Runoff      Runoff   Runoff   Coeff
  Subcatchment                 in         in         in         in         in         in         in    10^6 gal      CFS
  ------------------------------------------------------------------------------------------------------------------------------
  1                          5.57       0.00       0.00       1.88       2.94       0.71       3.65        2.60    91.81   0.656
  10                         5.57       0.00       0.00       1.71       3.15       0.67       3.81        1.92    67.03   0.685
  11                         5.57       0.00       0.00       2.08       2.68       0.77       3.45        3.11   112.13   0.621
  12                         5.57       0.00       0.00       2.08       2.71       0.74       3.45        4.88   168.73   0.620
  13                         5.57       0.00       0.00       3.60       0.83       1.13       1.96        2.23    89.33   0.351
  14                         5.57       0.00       0.00       2.80       1.77       0.98       2.75        2.54    99.04   0.494
  15                         5.57       0.00       0.00       3.44       0.92       1.19       2.12        2.05    92.77   0.380
  16                         5.57       0.00       0.00       3.52       0.85       1.18       2.03        2.03    88.79   0.366
  17                         5.57       0.00       0.00       3.56       0.93       1.06       1.99        2.13    78.60   0.358
  18                         5.57       0.00       0.00       2.86       1.66       1.03       2.69        1.50    61.52   0.484
  19                         5.57       0.00       0.00       3.50       0.98       1.07       2.06        2.11    79.96   0.369
  2                          5.57       0.00       0.00       2.10       2.65       0.79       3.44        2.50    91.28   0.617
  20                         5.57       0.00       0.00       3.34       1.07       1.15       2.22        1.48    64.59   0.398
  21                         5.57       0.00       0.00       3.48       0.83       1.25       2.08        1.16    56.42   0.374
  22                         5.57       0.00       0.00       3.62       0.62       1.32       1.94        0.81    43.12   0.348
  23                         5.57       0.00       0.00       3.17       1.23       1.15       2.38        1.13    51.01   0.428
  24                         5.57       0.00       0.00       3.66       0.51       1.40       1.90        0.78    45.82   0.342
  25                         5.57       0.00       0.00       5.02       0.54       0.00       0.54        0.11     3.01   0.097
  26                         5.57       0.00       0.00       2.64       1.87       1.03       2.90        1.04    45.43   0.522
  27                         5.57       0.00       0.00       2.82       1.75       0.98       2.73        1.91    74.11   0.490
  28                         5.57       0.00       0.00       3.15       1.55       0.85       2.39        1.82    70.76   0.430
  29                         5.57       0.00       0.00       1.36       3.64       0.52       4.16        3.49   113.07   0.747
  30                         5.57       0.00       0.00       1.59       3.30       0.63       3.93        1.92    66.72   0.707
  31                         5.57       0.00       0.00       1.70       3.13       0.69       3.82        1.38    49.72   0.687
  32                         5.57       0.00       0.00       2.77       1.76       1.01       2.77        1.62    66.06   0.498
  33                         5.57       0.00       0.00       3.27       1.31       0.97       2.28        2.53    87.80   0.409
  34                         5.57       0.00       0.00       1.61       3.37       0.55       3.92        2.36    73.73   0.703
  35                         5.57       0.00       0.00       1.82       3.00       0.71       3.71        1.60    57.17   0.666
  36                         5.57       0.00       0.00       3.64       0.62       1.30       1.92        1.24    63.62   0.345
  37                         5.57       0.00       0.00       1.99       2.78       0.76       3.54        1.67    60.64   0.637
  38                         5.57       0.00       0.00       2.96       1.64       0.95       2.59        2.19    79.31   0.465
  39                         5.57       0.00       0.00       1.75       3.09       0.69       3.78        1.67    59.07   0.678
  4                          5.57       0.00       0.00       3.60       1.13       0.82       1.96        3.72   108.05   0.351
  40                         5.57       0.00       0.00       1.86       2.96       0.71       3.67        2.62    92.33   0.659
  41                         5.57       0.00       0.00       2.09       2.71       0.73       3.44        2.65    90.68   0.618
  5                          5.57       0.00       0.00       4.07       0.32       1.17       1.49        0.90    35.89   0.268
  6                          5.57       0.00       0.00       3.44       1.01       1.11       2.12        2.26    91.11   0.381
  7                          5.57       0.00       0.00       3.45       0.94       1.17       2.11        2.82   123.21   0.379
  8                          5.57       0.00       0.00       3.17       1.28       1.10       2.38        1.87    78.41   0.428
  9                          5.57       0.00       0.00       1.66       3.25       0.62       3.87        4.45   149.70   0.695
  
  
  ******************
  Node Depth Summary
  ******************
  
  ---------------------------------------------------------------------------------
                                 Average  Maximum  Maximum  Time of Max    Reported
                                   Depth    Depth      HGL   Occurrence   Max Depth
  Node                 Type         Feet     Feet     Feet  days hr:min        Feet
  ---------------------------------------------------------------------------------
  CONNECT              JUNCTION     4.71     9.87   250.71     0  12:50        9.87
  CONNECT13            JUNCTION     1.92     4.49   274.63     0  12:38        4.49
  CONNECT18            JUNCTION     2.35     7.93   278.50     0  12:30        7.93
  CONNECT19            JUNCTION     2.33     7.87   275.47     0  12:32        7.87
  CONNECT20            JUNCTION     1.99     6.87   272.37     0  12:37        6.87
  CONNECT21            JUNCTION     2.21     6.77   269.28     0  12:39        6.77
  CONNECT23            JUNCTION     1.83     6.18   265.65     0  12:41        6.18
  CONNECT24            JUNCTION     1.89     6.41   265.43     0  12:41        6.41
  CONNECT25            JUNCTION     1.70     6.52   261.76     0  12:48        6.52
  CONNECT27            JUNCTION     0.72     3.16   255.56     0  12:52        3.16
  CONNECT8             JUNCTION     1.88     4.18   286.55     0  12:31        4.18
  MA010110X            JUNCTION     0.95     3.14   240.14     0  12:51        3.14
  MA010111X            JUNCTION     1.60     5.07   245.94     0  12:50        5.07
  MA010112X            JUNCTION     1.21     3.06   245.33     0  12:50        3.06
  MA010113X            JUNCTION     0.49     1.70   245.16     0  12:50        1.70
  MA010114X            JUNCTION     2.41     6.76   249.50     0  12:50        6.76
  MA010115X            JUNCTION     2.85     7.95   250.95     0  12:52        7.95
  MA010116X            JUNCTION     2.66     6.72   251.42     0  12:53        6.72
  MA010117X            JUNCTION     2.53     6.51   251.51     0  12:53        6.51
  MA010118X            JUNCTION     2.25     6.02   251.52     0  12:53        6.02
  MA010119X            JUNCTION     1.14     3.29   251.29     0  12:52        3.29
  MA010120X            JUNCTION     1.38     3.95   254.25     0  12:51        3.95
  MA010121X            JUNCTION     0.72     1.90   253.80     0  12:51        1.90
  MA01012203S          JUNCTION     0.02     0.45   255.61     0  12:52        0.44
  MA01012204S          JUNCTION     0.45     1.66   262.44     0  12:28        1.66
  MA01012205S          JUNCTION     0.61     4.17   268.11     0  12:05        3.23
  MA01012206S          JUNCTION     0.85     5.00   272.64     0  12:05        5.00
  MA010122X            JUNCTION     1.65     6.35   258.93     0  12:51        6.35
  MA010123X            JUNCTION     1.95     6.50   259.42     0  12:51        6.50
  MA010124X            JUNCTION     1.87     6.32   259.81     0  12:51        6.32
  MA010125X            JUNCTION     1.91     6.31   259.94     0  12:51        6.31
  MA010126X            JUNCTION     1.58     5.97   260.12     0  12:50        5.97
  MA010127X            JUNCTION     1.69     6.32   261.16     0  12:48        6.32
  MA010128X            JUNCTION     1.69     6.42   261.48     0  12:48        6.42
  MA010129X            JUNCTION     1.70     6.57   261.89     0  12:48        6.57
  MA010130X            JUNCTION     2.15     7.03   262.34     0  12:48        7.03
  MA010131X            JUNCTION     2.48     7.43   262.58     0  12:47        7.43
  MA010132X            JUNCTION     2.50     7.53   262.80     0  12:47        7.53
  MA010133X            JUNCTION     2.43     7.42   263.12     0  12:47        7.42
  MA010134X            JUNCTION     2.08     6.85   263.87     0  12:46        6.85
  MA010135X            JUNCTION     2.24     6.88   265.22     0  12:41        6.88
  MA010136X            JUNCTION     1.87     6.31   265.49     0  12:41        6.31
  MA010137X            JUNCTION     1.81     6.07   265.84     0  12:41        6.07
  MA010138X            JUNCTION     1.73     5.76   266.25     0  12:41        5.76
  MA010139X            JUNCTION     1.81     5.72   266.44     0  12:40        5.72
  MA01014002S          JUNCTION     0.44     2.58   268.94     0  12:39        2.57
  MA01014003S          JUNCTION     0.46     2.12   270.59     0  12:21        2.12
  MA01014004S          JUNCTION     0.54     2.58   273.06     0  12:38        2.58
  MA01014005S          JUNCTION     0.48     2.65   273.85     0  12:38        2.65
  MA01014006S          JUNCTION     0.55     4.03   277.52     0  12:12        4.03
  MA01014007S          JUNCTION     0.00     0.00   279.18     0  00:00        0.00
  MA010140X            JUNCTION     2.28     6.70   268.45     0  12:39        6.70
  MA01014101S          JUNCTION     0.69     2.50   266.27     0  12:08        2.50
  MA01014102S          JUNCTION     0.69     4.17   269.49     0  12:18        4.17
  MA01014103S          JUNCTION     0.75     4.82   270.58     0  12:14        4.82
  MA01014104S          JUNCTION     0.23     5.32   273.36     0  12:14        3.94
  MA010141X            JUNCTION     2.21     6.84   269.53     0  12:39        6.84
  MA010142X            JUNCTION     1.87     6.12   269.88     0  12:39        6.12
  MA010143X            JUNCTION     2.07     6.98   271.69     0  12:38        6.98
  MA01014401S          JUNCTION     0.37     3.00   271.32     0  12:20        3.00
  MA01014402S          JUNCTION     0.42     2.39   273.24     0  12:35        2.39
  MA01014403S          JUNCTION     0.33     2.34   274.27     0  12:22        2.32
  MA01014404S          JUNCTION     0.59     3.30   276.27     0  12:31        3.29
  MA01014405S          JUNCTION     0.59     4.42   278.66     0  12:11        4.42
  MA01014406S          JUNCTION     0.00     0.00   282.39     0  00:00        0.00
  MA01014407S          JUNCTION     0.00     0.00   288.46     0  00:00        0.00
  MA010144X            JUNCTION     1.98     6.89   272.62     0  12:37        6.89
  MA010145X            JUNCTION     2.09     7.32   273.57     0  12:37        7.32
  MA010146X            JUNCTION     2.19     7.53   273.83     0  12:37        7.53
  MA010147X            JUNCTION     2.04     7.42   273.98     0  12:36        7.42
  MA010148X            JUNCTION     2.68     7.81   274.53     0  12:34        7.81
  MA010149X            JUNCTION     2.48     8.07   275.21     0  12:33        8.07
  MA010150X            JUNCTION     2.35     7.99   275.42     0  12:32        7.99
  MA01015101S          JUNCTION     0.84     5.29   274.64     0  12:16        5.29
  MA01015102S          JUNCTION     1.17     6.35   276.69     0  12:32        6.35
  MA01015103S          JUNCTION     0.95     5.45   278.60     0  12:16        5.45
  MA01015104S          JUNCTION     0.60     3.61   279.60     0  12:19        3.61
  MA01015105S          JUNCTION     0.43     1.84   281.76     0  12:16        1.84
  MA01015106S          JUNCTION     0.49     2.42   288.85     0  12:30        2.42
  MA01015107S          JUNCTION     0.42     1.77   296.19     0  12:28        1.77
  MA01015108S          JUNCTION     0.71     4.35   299.52     0  12:30        4.33
  MA01015109S          JUNCTION     0.81     6.36   302.79     0  12:28        6.36
  MA01015110S          JUNCTION     0.25     4.31   302.26     0  12:17        4.31
  MA010151X            JUNCTION     2.29     7.79   275.51     0  12:31        7.79
  MA010152X            JUNCTION     2.23     7.63   275.67     0  12:32        7.63
  MA010153X            JUNCTION     2.13     7.77   276.45     0  12:31        7.77
  MA0101543S           JUNCTION     1.09     7.38   298.34     0  12:14        7.08
  MA010154X            JUNCTION     2.23     7.96   277.24     0  12:31        7.96
  MA010155X            JUNCTION     2.12     7.85   277.46     0  12:31        7.85
  MA010156X            JUNCTION     2.31     7.89   278.33     0  12:30        7.89
  MA01015702S          JUNCTION     1.14     7.83   281.30     0  12:12        6.85
  MA01015703S          JUNCTION     1.43     7.99   282.24     0  12:12        7.44
  MA01015704S          JUNCTION     1.10     8.10   284.60     0  12:12        7.09
  MA01015705S          JUNCTION     1.12     6.94   285.77     0  12:13        6.61
  MA01015706S          JUNCTION     1.27     7.15   286.94     0  12:15        7.15
  MA01015707S          JUNCTION     1.50     5.95   288.49     0  12:15        5.87
  MA01015708S          JUNCTION     1.26     5.90   288.83     0  12:15        5.84
  MA01015709S          JUNCTION     1.16     5.68   289.16     0  12:15        5.63
  MA01015710S          JUNCTION     1.12     5.43   289.45     0  12:11        5.43
  MA01015711S          JUNCTION     1.20     6.24   290.80     0  12:11        5.55
  MA01015712S          JUNCTION     1.29    11.56   296.62     0  12:11        5.75
  MA01015713S          JUNCTION     0.98     4.76   291.94     0  12:18        4.76
  MA01015714S          JUNCTION     1.01     4.15   292.87     0  12:18        4.15
  MA01015715S          JUNCTION     1.32     4.67   293.50     0  12:17        4.67
  MA01015716S          JUNCTION     1.39     5.08   294.07     0  12:17        5.08
  MA01015717S          JUNCTION     0.92     3.91   295.14     0  12:18        3.91
  MA01015718S          JUNCTION     1.39     4.48   295.90     0  12:18        4.48
  MA01015719S          JUNCTION     1.15     4.69   296.56     0  12:18        4.69
  MA01015720S          JUNCTION     1.27     5.34   297.68     0  12:17        5.34
  MA01015721S          JUNCTION     1.44     6.18   298.84     0  12:18        6.18
  MA01015722S          JUNCTION     1.08     6.34   299.87     0  12:06        6.34
  MA01015723S          JUNCTION     1.48     8.17   302.61     0  12:07        8.17
  MA01015724S          JUNCTION     1.00     7.32   302.80     0  12:07        7.32
  MA01015725S          JUNCTION     0.95     6.25   303.02     0  12:06        6.25
  MA01015726S          JUNCTION     0.94     4.85   303.55     0  12:06        4.58
  MA01015727S          JUNCTION     0.98     4.67   303.52     0  12:07        4.67
  MA01015728S          JUNCTION     0.87     7.18   307.22     0  12:07        4.81
  MA01015729S          JUNCTION     0.93     6.74   307.49     0  12:07        5.08
  MA01015730S          JUNCTION     0.69     7.61   309.48     0  12:07        4.66
  MA01015731S          JUNCTION     0.79     6.42   309.35     0  12:07        4.86
  MA01015732S          JUNCTION     1.14     6.72   309.83     0  12:07        6.72
  MA01015733S          JUNCTION     0.80     7.23   315.54     0  12:06        7.23
  MA01015734S          JUNCTION     1.17     9.62   318.62     0  12:06        9.62
  MA01015735S          JUNCTION     0.33     6.51   319.02     0  12:05        6.51
  MA01015739S          JUNCTION     0.39     5.31   288.49     0  12:14        4.23
  MA01015740S          JUNCTION     0.51     4.91   288.58     0  12:14        4.33
  MA01015741S          JUNCTION     0.74     4.85   288.41     0  12:11        4.68
  MA01015742S          JUNCTION     0.79     7.76   291.29     0  12:15        4.76
  MA01015743S          JUNCTION     0.45     5.42   291.76     0  12:15        3.82
  MA01015744S          JUNCTION     0.48     4.41   292.57     0  12:16        3.66
  MA01015745S          JUNCTION     0.45     3.98   293.04     0  12:16        3.98
  MA01015746S          JUNCTION     0.55     7.44   302.78     0  12:30        7.43
  MA01015747S          JUNCTION     0.06     3.31   302.78     0  12:30        3.31
  MA010157X            JUNCTION     2.28     7.85   278.59     0  12:30        7.85
  MA010158X            JUNCTION     1.69     7.49   279.09     0  12:30        7.49
  MA01015901S          JUNCTION     1.43    11.65   288.65     0  12:12       11.00
  MA01015902S          JUNCTION     1.44    11.37   290.84     0  12:10       10.78
  MA01015903S          JUNCTION     1.23     9.70   292.34     0  12:11        9.70
  MA01015904S          JUNCTION     1.18     9.30   293.60     0  12:11        9.21
  MA01015905S          JUNCTION     1.07     8.85   295.56     0  12:12        8.43
  MA01015906S          JUNCTION     2.04     8.93   297.00     0  12:12        8.67
  MA01015907S          JUNCTION     0.84     7.29   299.53     0  12:12        7.26
  MA01015908S          JUNCTION     0.98     7.25   300.11     0  12:13        7.24
  MA01015909S          JUNCTION     1.03     7.58   300.64     0  12:13        7.58
  MA01015910S          JUNCTION     0.60     4.99   302.93     0  12:14        4.97
  MA01015911S          JUNCTION     1.30     5.54   305.56     0  12:09        5.54
  MA01015912S          JUNCTION     0.62     5.37   308.77     0  12:11        5.35
  MA01015913S          JUNCTION     2.35     7.25   308.85     0  12:11        7.23
  MA01015915S          JUNCTION     2.03     3.55   309.32     0  12:09        3.53
  MA01015916S          JUNCTION     1.87     3.45   309.39     0  12:09        3.40
  MA01015917           JUNCTION     0.88     2.48   309.41     0  12:09        2.46
  MA01015918S          JUNCTION     1.72     4.42   310.60     0  12:05        3.97
  MA01015919S          JUNCTION     0.68     6.92   316.90     0  12:08        6.92
  MA01015920S          JUNCTION     0.15     4.40   317.99     0  12:08        3.31
  MA01015924S          JUNCTION     0.30     5.84   295.11     0  12:12        5.84
  MA01015925S          JUNCTION     0.16     7.35   298.96     0  12:13        3.51
  MA01015926S          JUNCTION     0.00     0.10   295.78     0  12:13        0.08
  MA01015927S          JUNCTION     5.08     5.15   301.38     0  02:03        5.15
  MA01015928S          JUNCTION     4.99     6.30   302.69     0  12:03        6.17
  MA01015929S          JUNCTION     1.32     8.66   309.22     0  12:16        8.66
  MA01015930S          JUNCTION     0.22     4.51   308.97     0  12:07        4.51
  MA01015935S          JUNCTION     1.07     8.60   302.48     0  12:13        8.59
  MA01015936S          JUNCTION     0.60     5.89   305.60     0  12:12        5.89
  MA01015937S          JUNCTION     0.54     4.51   310.41     0  12:30        4.51
  MA01015938S          JUNCTION     3.19     7.94   311.25     0  12:16        7.94
  MA01015939S          JUNCTION     0.40     5.90   313.94     0  12:16        4.84
  MA01015940S          JUNCTION     0.69     6.32   315.91     0  12:16        5.95
  MA01015941S          JUNCTION     0.01     0.41   315.51     0  12:30        0.33
  MA01015942S          JUNCTION     1.99     5.46   317.05     0  12:29        4.08
  MA01016001S          JUNCTION     5.09    12.87   281.22     0  12:30       12.87
  MA01016002S          JUNCTION     2.69    12.49   283.49     0  12:28       12.49
  MA01016003S          JUNCTION     2.73    13.46   284.54     0  12:12       13.46
  MA01016003S-N0       JUNCTION     1.50    14.18   287.41     0  12:12       12.85
  MA01016004S          JUNCTION     1.62     8.61   288.26     0  12:12        7.91
  MA01016005S          JUNCTION     1.28     8.26   289.51     0  12:12        7.80
  MA01016006S          JUNCTION     1.34     8.50   290.63     0  12:11        7.95
  MA01016007S          JUNCTION     1.22     8.14   292.60     0  12:11        7.55
  MA01016008S          JUNCTION     1.45     8.68   293.71     0  12:14        8.31
  MA01016009S          JUNCTION     1.18     8.54   295.70     0  12:14        8.15
  MA01016010S          JUNCTION     1.28     8.53   297.63     0  12:14        8.16
  MA01016011S          JUNCTION     0.93     7.30   298.91     0  12:14        6.96
  MA01016012S          JUNCTION     0.86     7.10   301.94     0  12:12        6.40
  MA01016013S          JUNCTION     0.68     4.78   304.05     0  12:14        4.64
  MA01016014S          JUNCTION     1.00     6.00   306.38     0  12:26        6.00
  MA01016015S          JUNCTION     0.74     6.20   312.65     0  12:26        6.20
  MA01016016S          JUNCTION     1.31     8.32   314.92     0  12:28        8.31
  MA01016017S          JUNCTION     1.02     8.82   315.91     0  12:28        8.82
  MA01016018S          JUNCTION     0.52     6.12   315.24     0  12:06        6.12
  MA01016019S          JUNCTION     0.41     5.78   315.79     0  12:06        5.40
  MA01016020S          JUNCTION     0.35     5.79   316.32     0  12:06        5.01
  MA01016021S          JUNCTION     0.21     4.91   317.05     0  12:07        3.55
  MA01016022S          JUNCTION     0.05     1.56   315.90     0  12:09        1.55
  MA01016023S          JUNCTION     0.00     0.00   318.59     0  00:00        0.00
  MA01016041S          JUNCTION     1.10     6.38   299.27     0  12:14        6.14
  MA01016042S          JUNCTION     1.25     6.58   300.32     0  12:14        6.47
  MA01016043S          JUNCTION     1.03     6.28   302.65     0  12:05        6.28
  MA01016044S          JUNCTION     0.92     6.30   303.11     0  12:05        6.30
  MA01016045S          JUNCTION     0.83     7.53   305.72     0  12:06        6.49
  MA01016046S          JUNCTION     0.86     9.20   308.41     0  12:06        6.92
  MA01016047S          JUNCTION     1.02     8.93   309.09     0  12:06        7.28
  MA01016048S          JUNCTION     0.65     9.10   311.04     0  12:06        6.69
  MA01016049S          JUNCTION     0.63     6.27   312.75     0  12:06        5.81
  MA01016050S          JUNCTION     0.71     6.54   314.81     0  12:06        6.16
  MA01016051S          JUNCTION     1.06     7.84   316.34     0  12:06        7.47
  MA01016052S          JUNCTION     0.86     8.36   318.49     0  12:20        8.36
  MA01016053S          JUNCTION     0.45     6.13   316.72     0  12:05        6.13
  MA01016054S          JUNCTION     0.29     5.05   317.00     0  12:05        4.77
  MA020101X            JUNCTION     2.65     7.72   250.72     0  12:50        7.72
  MA020102X            JUNCTION     1.41     6.28   250.78     0  12:47        6.28
  MA020103X            JUNCTION     2.13     7.11   250.91     0  12:47        7.11
  MA020105X            JUNCTION     1.49     5.73   254.50     0  12:41        5.73
  MA020107X            JUNCTION     1.08     3.92   256.21     0  12:42        3.92
  MA02010802S          JUNCTION     0.72     3.44   258.24     0  12:30        3.42
  MA02010805S          JUNCTION     0.76     3.67   258.44     0  12:30        3.66
  MA02010806S          JUNCTION     0.43     3.66   264.43     0  12:30        3.66
  MA02010807S          JUNCTION     0.23     3.43   264.43     0  12:30        3.43
  MA020108X            JUNCTION     1.28     5.06   258.04     0  12:41        5.06
  MA020109X            JUNCTION     1.19     5.01   258.19     0  12:41        5.01
  MA020110X            JUNCTION     1.39     5.45   259.37     0  12:41        5.45
  MA020112X            JUNCTION     1.15     4.28   260.38     0  12:41        4.28
  MA020113X            JUNCTION     1.04     4.35   260.73     0  12:41        4.35
  MA020114X            JUNCTION     1.41     5.34   261.92     0  12:41        5.34
  MA020115X            JUNCTION     1.22     5.47   262.65     0  12:40        5.47
  MA02011601S-N1       JUNCTION     0.50     3.84   262.79     0  12:37        3.84
  MA02011602S          JUNCTION     0.42     2.36   268.78     0  12:21        2.35
  MA02011603S          JUNCTION     0.60     4.58   271.93     0  12:29        4.57
  MA02011604S          JUNCTION     0.55     5.30   274.36     0  12:30        5.30
  MA02011605S          JUNCTION     0.63     6.73   277.13     0  12:29        6.73
  MA020116X            JUNCTION     0.90     4.30   262.81     0  12:40        4.30
  MA020117X            JUNCTION     0.92     3.92   263.32     0  12:41        3.92
  MA020118X            JUNCTION     1.22     5.13   265.39     0  12:41        5.13
  MA020119X            JUNCTION     1.17     5.16   265.89     0  12:41        5.16
  MA020120X            JUNCTION     1.01     4.79   266.08     0  12:41        4.79
  MA020121X            JUNCTION     0.58     2.13   265.63     0  12:42        2.13
  MA020122X            JUNCTION     0.69     2.70   267.07     0  12:41        2.70
  MA020123X            JUNCTION     0.98     3.54   268.52     0  12:41        3.54
  MA020124X            JUNCTION     0.86     3.43   270.05     0  12:40        3.43
  MA02012502S          JUNCTION     0.30     0.94   278.53     0  12:09        0.94
  MA02012503S          JUNCTION     5.48     7.48   279.85     0  12:43        7.47
  MA02012504S          JUNCTION     0.29     0.89   281.43     0  12:09        0.89
  MA02012505S          JUNCTION     3.50     6.40   284.03     0  12:08        6.40
  MA02012506S          JUNCTION     1.33     6.38   291.26     0  12:02        6.38
  MA02012507S          JUNCTION     0.12     1.70   291.61     0  12:06        1.67
  MA02012508S          JUNCTION     0.00     0.00   291.62     0  00:00        0.00
  MA02012509S          JUNCTION     0.00     0.00   295.65     0  00:00        0.00
  MA020125X            JUNCTION     1.14     4.43   271.91     0  12:40        4.43
  MA020126X            JUNCTION     1.42     5.00   272.51     0  12:39        5.00
  MA020127X            JUNCTION     0.87     4.29   272.83     0  12:39        4.29
  MA020128X            JUNCTION     1.34     4.52   274.22     0  12:39        4.52
  MA020129X            JUNCTION     1.24     4.70   275.84     0  12:38        4.70
  MA020130X            JUNCTION     1.10     4.39   276.47     0  12:37        4.39
  MA020131X            JUNCTION     1.64     5.38   277.41     0  12:38        5.38
  MA02013202S          JUNCTION     0.38     2.42   283.35     0  12:16        2.42
  MA02013204S          JUNCTION     0.55     4.00   287.12     0  12:12        4.00
  MA02013205S          JUNCTION     0.58     5.78   294.37     0  12:12        5.78
  MA020132X            JUNCTION     1.46     5.44   277.82     0  12:38        5.44
  MA020133X            JUNCTION     1.44     5.46   277.87     0  12:38        5.46
  MA02013401S          JUNCTION     0.54     4.99   278.97     0  12:38        4.98
  MA02013403S          JUNCTION     1.27     6.65   279.42     0  12:38        6.65
  MA02013404S          JUNCTION     1.48     6.03   278.47     0  12:38        6.03
  MA02013405S          JUNCTION     1.38     6.36   278.96     0  12:37        6.36
  MA020134X            JUNCTION     1.45     7.58   280.36     0  12:37        7.57
  MA020135X            JUNCTION     1.37     7.46   280.35     0  12:37        7.46
  MA020136X            JUNCTION     1.05     5.45   280.42     0  12:37        5.45
  MA020137X            JUNCTION     1.35     5.44   280.70     0  12:36        5.43
  MA020138X            JUNCTION     1.01     4.21   281.80     0  12:30        4.21
  MA020139X            JUNCTION     1.15     4.33   283.10     0  12:31        4.33
  MA020140X            JUNCTION     0.72     3.00   286.55     0  12:30        3.00
  MA020141X            JUNCTION     1.50     5.15   289.68     0  12:32        5.15
  MA020142X            JUNCTION     0.72     2.83   289.97     0  12:30        2.82
  MA02014302S          JUNCTION     0.26     2.42   293.28     0  12:30        2.41
  MA02014303S          JUNCTION     0.17     1.07   294.19     0  12:48        1.06
  MA02014304S          JUNCTION     0.51     3.60   296.84     0  12:24        3.60
  MA02014305S          JUNCTION     0.16     1.39   297.29     0  12:30        1.38
  MA02014306S          JUNCTION     0.00     0.00   299.32     0  00:00        0.00
  MA020143X            JUNCTION     1.40     4.69   292.39     0  12:30        4.68
  MA020144X            JUNCTION     1.24     4.54   292.39     0  12:31        4.54
  MA02014502S          JUNCTION     0.20     2.66   292.62     0  12:29        2.64
  MA02014504S          JUNCTION     0.42     3.63   293.26     0  12:29        3.51
  MA02014505S          JUNCTION     0.64     3.74   300.36     0  12:11        3.74
  MA02014506S          JUNCTION     0.65     4.30   304.59     0  12:09        4.28
  MA02014507S          JUNCTION     0.70     4.48   306.10     0  12:09        4.48
  MA02014508S          JUNCTION     0.91     6.12   308.23     0  12:09        6.12
  MA02014510S          JUNCTION     0.17     3.26   304.56     0  12:09        3.24
  MA020145X            JUNCTION     1.06     4.04   292.37     0  12:29        3.99
  MA020147X            JUNCTION     1.10     4.07   293.45     0  12:30        4.06
  MA02014802S          JUNCTION     0.67     3.78   297.95     0  12:30        3.78
  MA02014803S          JUNCTION     0.98     4.81   299.02     0  12:30        4.81
  MA020148X            JUNCTION     0.73     3.05   294.98     0  12:30        3.05
  MA020149X            JUNCTION     0.51     1.92   295.79     0  12:36        1.92
  MA020150X            JUNCTION     0.75     2.51   298.69     0  12:35        2.51
  MA020151X            JUNCTION     0.65     2.13   300.71     0  12:34        2.13
  MA020152X            JUNCTION     0.82     2.40   301.27     0  12:34        2.40
  MA020153X            JUNCTION     1.19     3.15   301.76     0  12:34        3.15
  MA02015402S          JUNCTION     0.25     0.99   311.11     0  12:22        0.99
  MA02015403S          JUNCTION     0.51     2.66   313.55     0  12:22        2.66
  MA02015404S          JUNCTION     0.64     3.11   314.25     0  12:23        3.11
  MA02015405S          JUNCTION     0.54     3.58   314.92     0  12:31        3.58
  MA02015406S          JUNCTION     0.73     4.30   315.84     0  12:23        4.29
  MA02015407S          JUNCTION     0.37     3.00   316.78     0  12:17        3.00
  MA02015412S          JUNCTION     0.46     2.23   302.12     0  12:34        2.23
  MA02015414S          JUNCTION     0.79     2.70   303.97     0  12:21        2.70
  MA02015415S          JUNCTION     0.38     1.29   310.70     0  12:27        1.29
  MA02015416S          JUNCTION     0.37     1.37   320.46     0  12:39        1.37
  MA02015417S          JUNCTION     0.51     2.84   326.82     0  12:05        2.84
  MA020154X            JUNCTION     0.97     2.93   301.76     0  12:33        2.93
  MA030101X            JUNCTION     0.42     1.92   301.86     0  12:30        1.92
  MA030102X            JUNCTION     0.57     2.58   303.48     0  12:48        2.58
  MA030103X            JUNCTION     0.76     3.29   304.69     0  12:44        3.29
  MA030104X            JUNCTION     2.49     3.26   305.41     0  12:14        3.25
  MA030105X            JUNCTION     1.79     2.56   305.44     0  12:16        2.56
  MA030106X            JUNCTION     1.70     2.52   305.49     0  12:17        2.52
  MA030107X            JUNCTION     0.77     1.92   305.94     0  12:37        1.92
  MA030108X            JUNCTION     0.56     2.07   306.80     0  12:36        2.07
  MA030109X            JUNCTION     0.47     1.82   306.99     0  12:34        1.82
  MA030110X            JUNCTION     0.26     1.23   306.93     0  12:32        1.23
  MA030111X            JUNCTION     1.73     4.16   309.62     0  12:19        4.16
  MA030112X            JUNCTION     1.83     4.27   309.67     0  12:17        4.27
  MA0301202S           JUNCTION     2.06     6.14   311.44     0  12:07        6.14
  MA0301203S           JUNCTION     0.72     6.36   313.68     0  12:07        5.72
  MA0301204S           JUNCTION     0.62     6.26   316.47     0  12:07        4.89
  MA0301205S           JUNCTION     0.78     6.80   317.86     0  12:07        5.51
  MA0301206S           JUNCTION     0.79     6.62   318.45     0  12:07        6.17
  MA0301207S           JUNCTION     0.88     7.04   319.73     0  12:07        7.04
  MA0301208S           JUNCTION     0.34     6.21   320.05     0  12:07        5.89
  STRUCTURE-369        JUNCTION     0.47     1.84   303.00     0  12:09        1.84
  STUCTURE-60          JUNCTION     1.51    11.26   318.63     0  12:25       11.26
  MA010109X            OUTFALL      0.95     3.14   236.64     0  12:51        3.14
  
  
  *******************
  Node Inflow Summary
  *******************
  
  -------------------------------------------------------------------------------------------------
                                  Maximum  Maximum                  Lateral       Total        Flow
                                  Lateral    Total  Time of Max      Inflow      Inflow     Balance
                                   Inflow   Inflow   Occurrence      Volume      Volume       Error
  Node                 Type           CFS      CFS  days hr:min    10^6 gal    10^6 gal     Percent
  -------------------------------------------------------------------------------------------------
  CONNECT              JUNCTION      0.00  1167.32     0  12:49           0        61.2       0.054
  CONNECT13            JUNCTION      0.00   403.90     0  12:38           0        14.6       0.122
  CONNECT18            JUNCTION      0.00   546.97     0  12:30           0          28       0.041
  CONNECT19            JUNCTION      0.00   637.47     0  12:32           0        32.3       0.071
  CONNECT20            JUNCTION      0.00   556.24     0  12:36           0        31.7       0.029
  CONNECT21            JUNCTION      0.00   508.65     0  12:39           0        31.6       0.050
  CONNECT23            JUNCTION      0.00   483.75     0  12:41           0        31.1       0.042
  CONNECT24            JUNCTION      0.00   484.00     0  12:42           0          31       0.035
  CONNECT25            JUNCTION      0.00   537.99     0  12:39           0        33.8       0.009
  CONNECT27            JUNCTION      0.00   545.99     0  12:52           0          35       0.023
  CONNECT8             JUNCTION      0.00   325.02     0  12:30           0        10.9       0.177
  MA010110X            JUNCTION      0.00  1217.63     0  12:50           0        64.8       0.030
  MA010111X            JUNCTION      0.00  1217.69     0  12:50           0        64.8       0.034
  MA010112X            JUNCTION    108.05  1217.71     0  12:50        3.72        64.8       0.041
  MA010113X            JUNCTION      0.00  1166.78     0  12:50           0        61.1       0.019
  MA010114X            JUNCTION      0.00  1166.95     0  12:50           0        61.1       0.071
  MA010115X            JUNCTION      0.00   582.93     0  12:56           0          37       0.083
  MA010116X            JUNCTION      0.00   581.62     0  12:55           0          37       0.047
  MA010117X            JUNCTION      0.00   580.58     0  12:54           0        37.1       0.062
  MA010118X            JUNCTION      0.00   580.33     0  12:52           0        37.1       0.116
  MA010119X            JUNCTION      0.00   580.45     0  12:51           0        37.1       0.054
  MA010120X            JUNCTION      0.00   580.43     0  12:51           0        37.1       0.059
  MA010121X            JUNCTION     78.60   580.44     0  12:51        2.13        37.2       0.046
  MA01012203S          JUNCTION      0.00     0.54     0  12:46           0     0.00189       0.178
  MA01012204S          JUNCTION      0.00    23.91     0  12:05           0        1.36       0.023
  MA01012205S          JUNCTION      0.00    25.36     0  12:05           0        1.36      -0.125
  MA01012206S          JUNCTION     88.79    88.79     0  12:30        2.03        2.03       0.155
  MA010122X            JUNCTION      0.00   522.59     0  12:51           0        33.7       0.041
  MA010123X            JUNCTION      0.00   524.13     0  12:49           0        33.7       0.071
  MA010124X            JUNCTION      0.00   526.03     0  12:49           0        33.7       0.048
  MA010125X            JUNCTION      0.00   527.50     0  12:48           0        33.7       0.032
  MA010126X            JUNCTION      0.00   529.42     0  12:38           0        33.7       0.019
  MA010127X            JUNCTION      0.00   534.26     0  12:39           0        33.8       0.024
  MA010128X            JUNCTION      0.00   536.76     0  12:39           0        33.8       0.016
  MA010129X            JUNCTION      0.00   539.60     0  12:39           0        33.8       0.013
  MA010130X            JUNCTION      0.00   542.09     0  12:40           0        33.8       0.022
  MA010131X            JUNCTION      0.00   544.01     0  12:40           0        33.8       0.027
  MA010132X            JUNCTION      0.00   545.94     0  12:40           0        33.8       0.026
  MA010133X            JUNCTION      0.00   548.03     0  12:41           0        33.8       0.038
  MA010134X            JUNCTION      0.00   549.09     0  12:41           0        33.8       0.037
  MA010135X            JUNCTION    123.21   549.43     0  12:40        2.82        33.8       0.044
  MA010136X            JUNCTION      0.00   483.76     0  12:42           0          31       0.039
  MA010137X            JUNCTION      0.00   483.92     0  12:40           0        31.1       0.041
  MA010138X            JUNCTION      0.00   484.24     0  12:40           0        31.1       0.037
  MA010139X            JUNCTION      0.00   484.63     0  12:39           0        31.1       0.038
  MA01014002S          JUNCTION      0.00    43.04     0  12:26           0        1.67      -0.145
  MA01014003S          JUNCTION      0.00    42.42     0  12:23           0        1.67       0.282
  MA01014004S          JUNCTION      0.00    42.62     0  12:13           0        1.67       0.011
  MA01014005S          JUNCTION      0.00    42.68     0  12:12           0        1.67       0.015
  MA01014006S          JUNCTION     78.41    78.41     0  12:30        1.87        1.87       0.018
  MA01014007S          JUNCTION      0.00     0.00     0  00:00           0           0       0.000 gal
  MA010140X            JUNCTION      0.00   484.73     0  12:39           0        31.1       0.034
  MA01014101S          JUNCTION      0.00    66.09     0  12:40           0        2.13      -0.001
  MA01014102S          JUNCTION      0.00    33.39     0  12:15           0        1.05       0.000
  MA01014103S          JUNCTION     63.62    63.62     0  12:30        1.24        1.24       0.021
  MA01014104S          JUNCTION      0.00     4.40     0  12:14           0     0.00467      -0.805
  MA010141X            JUNCTION      0.00   497.35     0  12:38           0        30.7       0.047
  MA010142X            JUNCTION      0.00   497.83     0  12:37           0        30.7       0.033
  MA010143X            JUNCTION      0.00   498.84     0  12:36           0        30.7       0.031
  MA01014401S          JUNCTION      0.00    56.70     0  12:39           0       0.991      -0.013
  MA01014402S          JUNCTION      0.00    41.53     0  12:23           0        1.48       0.262
  MA01014403S          JUNCTION      0.00    40.05     0  12:18           0        1.48       0.015
  MA01014404S          JUNCTION      0.00    40.05     0  12:18           0        1.48       0.002
  MA01014405S          JUNCTION     66.06    66.06     0  12:30        1.62        1.62       0.020
  MA01014406S          JUNCTION      0.00     0.00     0  00:00           0           0       0.000 gal
  MA01014407S          JUNCTION      0.00     0.00     0  00:00           0           0       0.000 gal
  MA010144X            JUNCTION      0.00   519.40     0  12:36           0        30.3       0.030
  MA010145X            JUNCTION      0.00   519.66     0  12:36           0        30.3       0.034
  MA010146X            JUNCTION      0.00   520.71     0  12:35           0        30.3       0.035
  MA010147X            JUNCTION      0.00   523.75     0  12:34           0        30.3       0.032
  MA010148X            JUNCTION      0.00   524.48     0  12:33           0        30.3       0.027
  MA010149X            JUNCTION      0.00   524.37     0  12:33           0        30.3       0.021
  MA010150X            JUNCTION      0.00   524.47     0  12:21           0        30.3       0.044
  MA01015101S          JUNCTION      0.00   113.75     0  12:34           0        1.95      -0.011
  MA01015102S          JUNCTION      0.00   106.20     0  12:18           0        4.29      -0.021
  MA01015103S          JUNCTION     89.33   154.09     0  12:30        2.23        4.67       0.186
  MA01015104S          JUNCTION      0.00    64.77     0  12:30           0        2.44       0.007
  MA01015105S          JUNCTION      0.00    64.77     0  12:30           0        2.45       0.058
  MA01015106S          JUNCTION      0.00    64.83     0  12:29           0        2.44      -0.098
  MA01015107S          JUNCTION      0.00    64.79     0  12:29           0        2.44       0.075
  MA01015108S          JUNCTION      0.00    64.79     0  12:29           0        2.44       0.017
  MA01015109S          JUNCTION     87.80    87.80     0  12:30        2.53        2.53       0.008
  MA01015110S          JUNCTION      0.00    20.05     0  12:30           0      0.0824       0.035
  MA010151X            JUNCTION      0.00   545.53     0  12:32           0          28       0.076
  MA010152X            JUNCTION      0.00   545.47     0  12:31           0          28       0.053
  MA010153X            JUNCTION      0.00   545.74     0  12:31           0          28       0.010
  MA0101543S           JUNCTION      0.00    72.07     0  12:09           0        4.06       0.049
  MA010154X            JUNCTION      0.00   545.99     0  12:31           0          28       0.025
  MA010155X            JUNCTION      0.00   546.20     0  12:30           0          28       0.032
  MA010156X            JUNCTION      0.00   546.49     0  12:30           0          28       0.032
  MA01015702S          JUNCTION      0.00   172.11     0  12:16           0        9.26       0.013
  MA01015703S          JUNCTION      0.00   172.11     0  12:16           0        9.26       0.022
  MA01015704S          JUNCTION      0.00   182.84     0  12:12           0        9.26      -0.034
  MA01015705S          JUNCTION      0.00   183.26     0  12:13           0        9.27       0.053
  MA01015706S          JUNCTION      0.00   181.80     0  12:15           0        9.33       0.014
  MA01015707S          JUNCTION     49.72   130.16     0  12:15        1.38        7.44       0.041
  MA01015708S          JUNCTION      0.00    94.62     0  12:46           0        6.07       0.010
  MA01015709S          JUNCTION      0.00    94.62     0  12:46           0        6.07       0.038
  MA01015710S          JUNCTION      0.00    94.62     0  12:46           0        6.24       0.015
  MA01015711S          JUNCTION      0.00    94.61     0  12:46           0        6.24       0.011
  MA01015712S          JUNCTION      0.00    94.60     0  12:46           0        6.24       0.024
  MA01015713S          JUNCTION      0.00    96.76     0  12:12           0        6.24       0.029
  MA01015714S          JUNCTION      0.00    95.21     0  12:12           0        6.24       0.019
  MA01015715S          JUNCTION      0.00    94.91     0  12:13           0        6.24       0.024
  MA01015716S          JUNCTION      0.00    94.92     0  12:13           0        6.24       0.036
  MA01015717S          JUNCTION      0.00    96.06     0  12:08           0        6.25       0.004
  MA01015718S          JUNCTION      0.00    96.10     0  12:07           0        6.25       0.056
  MA01015719S          JUNCTION      0.00    97.23     0  12:06           0        6.25       0.009
  MA01015720S          JUNCTION      0.00    97.23     0  12:06           0        6.25       0.021
  MA01015721S          JUNCTION      0.00    97.24     0  12:06           0        6.25       0.036
  MA01015722S          JUNCTION      0.00   123.74     0  12:28           0        6.69       0.015
  MA01015723S          JUNCTION    149.70   184.03     0  12:30        4.44        7.13       0.019
  MA01015724S          JUNCTION      0.00    47.20     0  12:40           0        2.68       0.021
  MA01015725S          JUNCTION      0.00    56.90     0  12:06           0        2.71      -0.037
  MA01015726S          JUNCTION      0.00    53.80     0  12:06           0        2.72      -0.023
  MA01015727S          JUNCTION      0.00    55.05     0  12:07           0        2.96       0.007
  MA01015728S          JUNCTION      0.00    58.10     0  12:07           0        2.96      -0.009
  MA01015729S          JUNCTION      0.00    58.80     0  12:06           0        2.96       0.044
  MA01015730S          JUNCTION      0.00    61.05     0  12:06           0        2.96       0.010
  MA01015731S          JUNCTION      0.00    61.04     0  12:06           0        2.96       0.025
  MA01015732S          JUNCTION      0.00    61.04     0  12:06           0        2.99       0.018
  MA01015733S          JUNCTION      0.00    62.49     0  12:32           0        3.07       0.012
  MA01015734S          JUNCTION    113.07   113.07     0  12:30        3.48        3.49       0.014
  MA01015735S          JUNCTION      0.00     9.11     0  12:05           0     0.00488      -4.689
  MA01015739S          JUNCTION      0.00    58.61     0  12:25           0        1.88      -0.053
  MA01015740S          JUNCTION      0.00    66.81     0  12:14           0        1.88       0.074
  MA01015741S          JUNCTION      0.00    69.08     0  12:14           0        1.88      -0.024
  MA01015742S          JUNCTION      0.00    64.87     0  12:15           0        1.88      -0.205
  MA01015743S          JUNCTION      0.00    60.90     0  12:15           0        1.88      -0.043
  MA01015744S          JUNCTION      0.00    60.77     0  12:16           0        1.88       0.125
  MA01015745S          JUNCTION      0.00    66.71     0  12:30           0        1.91      -0.015
  MA01015746S          JUNCTION     66.72    66.72     0  12:30        1.92        1.92       0.079
  MA01015747S          JUNCTION      0.00     2.46     0  12:17           0     0.00235      -0.764
  MA010157X            JUNCTION      0.00   378.84     0  12:30           0        18.8       0.063
  MA010158X            JUNCTION      0.00   382.75     0  12:15           0        18.8       0.046
  MA01015901S          JUNCTION      0.00   204.64     0  12:09           0        9.24      -0.019
  MA01015902S          JUNCTION      0.00   229.77     0  12:10           0        9.25       0.047
  MA01015903S          JUNCTION    112.13   268.94     0  12:30         3.1        9.77       0.028
  MA01015904S          JUNCTION      0.00   178.00     0  12:11           0        6.66      -0.057
  MA01015905S          JUNCTION      0.00   168.67     0  12:12           0        6.74       0.039
  MA01015906S          JUNCTION      0.00   168.69     0  12:12           0        6.73       0.102
  MA01015907S          JUNCTION      0.00   168.82     0  12:12           0        6.73       0.014
  MA01015908S          JUNCTION      0.00    81.26     0  12:38           0        3.36      -0.112
  MA01015909S          JUNCTION      0.00    81.21     0  12:38           0        3.41       0.007
  MA01015910S          JUNCTION      0.00    78.21     0  12:13           0        3.42       0.014
  MA01015911S          JUNCTION     79.31   118.25     0  12:30        2.19        3.68       0.051
  MA01015912S          JUNCTION      0.00    39.11     0  12:11           0        1.49       0.031
  MA01015913S          JUNCTION      0.00    40.84     0  12:10           0         1.5       0.456
  MA01015915S          JUNCTION      0.00    40.82     0  12:10           0        1.51       0.719
  MA01015916S          JUNCTION      0.00    40.79     0  12:10           0        1.52       0.714
  MA01015917           JUNCTION      0.00    39.03     0  12:12           0        1.52       0.299
  MA01015918S          JUNCTION      0.00    39.03     0  12:12           0        1.53       0.412
  MA01015919S          JUNCTION     60.64    60.64     0  12:30        1.67        1.67       0.015
  MA01015920S          JUNCTION      0.00     2.42     0  12:07           0     0.00221      -1.198
  MA01015924S          JUNCTION      0.00    28.43     0  12:12           0      0.0773      -0.248
  MA01015925S          JUNCTION      0.00    22.25     0  12:13           0     0.00767      -0.580
  MA01015926S          JUNCTION      0.00     1.66     0  12:13           0    0.000139       4.289
  MA01015927S          JUNCTION      0.00    51.02     0  12:20           0         2.2       0.000
  MA01015928S          JUNCTION      0.00    51.02     0  12:21           0        2.21       0.482
  MA01015929S          JUNCTION     73.73    73.73     0  12:30        2.36        2.36       0.124
  MA01015930S          JUNCTION      0.00    12.93     0  12:31           0       0.114      -0.047
  MA01015935S          JUNCTION      0.00    93.13     0  12:12           0        3.37       0.054
  MA01015936S          JUNCTION      0.00   112.75     0  12:30           0        3.53       0.005
  MA01015937S          JUNCTION     67.03   112.76     0  12:30        1.92        3.53       0.016
  MA01015938S          JUNCTION      0.00    56.26     0  12:30           0        1.67       0.740
  MA01015939S          JUNCTION      0.00    56.26     0  12:30           0        1.66      -0.008
  MA01015940S          JUNCTION     59.07    59.07     0  12:30        1.67        1.67       0.043
  MA01015941S          JUNCTION      0.00     2.83     0  12:30           0     0.00758      -2.306
  MA01015942S          JUNCTION      0.00     2.67     0  12:29           0     0.00606    5725.593
  MA01016001S          JUNCTION     57.17   382.75     0  12:15         1.6        18.9       0.555
  MA01016002S          JUNCTION      0.00   336.92     0  12:13           0        17.3       0.159
  MA01016003S          JUNCTION      0.00   337.05     0  12:26           0        17.4       0.117
  MA01016003S-N0       JUNCTION      0.00   340.67     0  12:12           0        17.4      -0.015
  MA01016004S          JUNCTION      0.00   141.46     0  12:12           0        8.19       0.043
  MA01016005S          JUNCTION      0.00   140.54     0  12:12           0        8.19       0.018
  MA01016006S          JUNCTION      0.00   143.46     0  12:11           0        8.19      -0.011
  MA01016007S          JUNCTION      0.00   144.11     0  12:11           0        8.19       0.011
  MA01016008S          JUNCTION      0.00   144.08     0  12:11           0         8.2       0.022
  MA01016009S          JUNCTION      0.00   144.05     0  12:11           0         8.2       0.019
  MA01016010S          JUNCTION      0.00   148.50     0  12:09           0         8.2       0.001
  MA01016011S          JUNCTION      0.00    81.37     0  12:29           0        4.14      -0.014
  MA01016012S          JUNCTION      0.00    81.37     0  12:28           0        4.14       0.026
  MA01016013S          JUNCTION      0.00    81.37     0  12:27           0        4.14       0.011
  MA01016014S          JUNCTION      0.00    81.37     0  12:27           0        4.14      -0.024
  MA01016015S          JUNCTION      0.00    82.00     0  12:08           0        4.14       0.017
  MA01016016S          JUNCTION      0.00    82.00     0  12:08           0        4.15       0.037
  MA01016017S          JUNCTION      0.00    82.00     0  12:08           0        4.15       0.013
  MA01016018S          JUNCTION      0.00    80.58     0  12:29           0        0.81       0.013
  MA01016019S          JUNCTION      0.00    23.32     0  12:06           0      0.0825      -0.188
  MA01016020S          JUNCTION      0.00    22.19     0  12:06           0      0.0623      -0.340
  MA01016021S          JUNCTION      0.00    19.68     0  12:06           0      0.0402      -1.002
  MA01016022S          JUNCTION      0.00    11.17     0  12:07           0      0.0141       1.706
  MA01016023S          JUNCTION      0.00     0.00     0  00:00           0           0       0.000 gal
  MA01016041S          JUNCTION      0.00    71.73     0  12:09           0        4.06       0.008
  MA01016042S          JUNCTION      0.00    71.74     0  12:09           0        4.06       0.044
  MA01016043S          JUNCTION     90.68   124.22     0  12:30        2.65        4.71       0.024
  MA01016044S          JUNCTION      0.00    43.87     0  12:27           0        2.19      -0.003
  MA01016045S          JUNCTION      0.00    43.87     0  12:29           0        2.19      -0.023
  MA01016046S          JUNCTION      0.00    43.87     0  12:27           0        2.19       0.016
  MA01016047S          JUNCTION      0.00    43.87     0  12:27           0         2.2       0.056
  MA01016048S          JUNCTION      0.00    50.58     0  12:06           0        2.19      -0.054
  MA01016049S          JUNCTION      0.00    46.20     0  12:06           0         2.2       0.066
  MA01016050S          JUNCTION      0.00    46.11     0  12:06           0         2.2       0.054
  MA01016051S          JUNCTION      0.00    46.12     0  12:06           0         2.2       0.035
  MA01016052S          JUNCTION     92.33    92.33     0  12:30        2.62        2.63       0.011
  MA01016053S          JUNCTION      0.00    39.43     0  12:27           0       0.412      -0.050
  MA01016054S          JUNCTION      0.00     9.15     0  12:04           0      0.0037       2.489
  MA020101X            JUNCTION      0.00   610.48     0  12:47           0        24.3       0.204
  MA020102X            JUNCTION      0.00   616.71     0  12:44           0        24.3       0.108
  MA020103X            JUNCTION      0.00   621.88     0  12:42           0        24.3       0.049
  MA020105X            JUNCTION     35.89   621.64     0  12:41       0.899        24.4       0.423
  MA020107X            JUNCTION      0.00   596.57     0  12:41           0        23.5       0.113
  MA02010802S          JUNCTION      0.00    60.91     0  12:30           0         1.5       0.495
  MA02010805S          JUNCTION      0.00    61.50     0  12:30           0         1.5       0.084
  MA02010806S          JUNCTION     61.52    61.52     0  12:30         1.5         1.5       0.012
  MA02010807S          JUNCTION      0.00     1.58     0  12:02           0     0.00549       0.120
  MA020108X            JUNCTION      0.00   596.66     0  12:41           0        23.5       0.084
  MA020109X            JUNCTION      0.00   568.68     0  12:42           0        22.1       0.081
  MA020110X            JUNCTION      0.00   568.65     0  12:41           0        22.1       0.037
  MA020112X            JUNCTION      0.00   568.70     0  12:41           0        22.1       0.110
  MA020113X            JUNCTION      0.00   568.76     0  12:40           0        22.1       0.035
  MA020114X            JUNCTION      0.00   568.79     0  12:40           0        22.1       0.050
  MA020115X            JUNCTION      0.00   568.90     0  12:39           0        22.1       0.043
  MA02011601S-N1       JUNCTION      0.00    79.28     0  12:30           0         2.1       0.007
  MA02011602S          JUNCTION      0.00    79.45     0  12:30           0         2.1       0.010
  MA02011603S          JUNCTION      0.00    79.45     0  12:30           0         2.1      -0.044
  MA02011604S          JUNCTION      0.00    79.44     0  12:30           0         2.1       0.034
  MA02011605S          JUNCTION     79.96    79.96     0  12:30         2.1         2.1       0.013
  MA020116X            JUNCTION      0.00   520.63     0  12:42           0          20       0.022
  MA020117X            JUNCTION      0.00   520.58     0  12:41           0          20       0.033
  MA020118X            JUNCTION      0.00   520.59     0  12:41           0          20       0.062
  MA020119X            JUNCTION     91.11   520.68     0  12:40        2.26          20       0.062
  MA020120X            JUNCTION      0.00   470.58     0  12:42           0        17.8       0.085
  MA020121X            JUNCTION      0.00   470.64     0  12:41           0        17.8       0.081
  MA020122X            JUNCTION      0.00   470.62     0  12:41           0        17.8       0.083
  MA020123X            JUNCTION      0.00   470.69     0  12:40           0        17.9       0.123
  MA020124X            JUNCTION      0.00   470.82     0  12:40           0        17.9       0.091
  MA02012502S          JUNCTION      0.00    32.98     0  12:09           0        1.88       0.028
  MA02012503S          JUNCTION      0.00    32.98     0  12:09           0        1.92       1.816
  MA02012504S          JUNCTION      0.00    32.98     0  12:08           0        1.92       0.030
  MA02012505S          JUNCTION      0.00    32.98     0  12:33           0        1.93       0.609
  MA02012506S          JUNCTION     99.04    99.82     0  12:30        2.54        2.55       0.053
  MA02012507S          JUNCTION      0.00     6.05     0  12:05           0      0.0123       0.223
  MA02012508S          JUNCTION      0.00     0.00     0  00:00           0           0       0.000 gal
  MA02012509S          JUNCTION      0.00     0.00     0  00:00           0           0       0.000 gal
  MA020125X            JUNCTION      0.00   470.88     0  12:39           0        17.9       0.069
  MA020126X            JUNCTION     64.59   438.06     0  12:39        1.48          16       0.103
  MA020127X            JUNCTION      0.00   403.10     0  12:39           0        14.5       0.050
  MA020128X            JUNCTION      0.00   403.74     0  12:38           0        14.6       0.096
  MA020129X            JUNCTION      0.00   404.12     0  12:37           0        14.6       0.062
  MA020130X            JUNCTION     92.77   404.27     0  12:37        2.05        14.6       0.029
  MA020131X            JUNCTION      0.00   350.16     0  12:38           0        12.5       0.058
  MA02013202S          JUNCTION      0.00    27.08     0  12:16           0       0.971       0.009
  MA02013204S          JUNCTION      0.00    29.22     0  12:31           0        1.01       0.028
  MA02013205S          JUNCTION     56.42    56.42     0  12:30        1.16        1.16       0.027
  MA020132X            JUNCTION      0.00   350.18     0  12:38           0        12.6       0.045
  MA020133X            JUNCTION      0.00   323.78     0  12:38           0        11.6       0.081
  MA02013401S          JUNCTION      0.00     1.07     0  12:13           0     0.00389      -0.498
  MA02013403S          JUNCTION      0.00   323.93     0  12:36           0        11.6       0.096
  MA02013404S          JUNCTION      0.00   323.68     0  12:38           0        11.6       0.109
  MA02013405S          JUNCTION      0.00   323.76     0  12:38           0        11.6       0.104
  MA020134X            JUNCTION      0.00   327.44     0  12:35           0        11.6       0.098
  MA020135X            JUNCTION      0.00   337.49     0  12:32           0        11.6       0.060
  MA020136X            JUNCTION      0.00   350.20     0  12:31           0        11.6       0.039
  MA020137X            JUNCTION      0.00   359.88     0  12:30           0        11.7       0.079
  MA020138X            JUNCTION     43.12   361.65     0  12:30       0.812        11.7       0.040
  MA020139X            JUNCTION      0.00   323.52     0  12:31           0        10.9       0.090
  MA020140X            JUNCTION     51.01   325.18     0  12:30        1.13        10.9       0.050
  MA020141X            JUNCTION      0.00   284.96     0  12:30           0        9.76       0.135
  MA020142X            JUNCTION      0.00   288.28     0  12:30           0        9.77       0.041
  MA02014302S          JUNCTION      0.00    33.15     0  12:25           0        0.69      -0.016
  MA02014303S          JUNCTION      0.00    33.15     0  12:25           0        0.69       0.016
  MA02014304S          JUNCTION      0.00    33.15     0  12:25           0        0.69       0.010
  MA02014305S          JUNCTION     45.82    45.82     0  12:30       0.777       0.777       0.009
  MA02014306S          JUNCTION      0.00     0.00     0  00:00           0           0       0.000 gal
  MA020143X            JUNCTION      0.00   293.07     0  12:29           0        9.77       0.026
  MA020144X            JUNCTION      0.00   260.71     0  12:29           0        9.08       0.026
  MA02014502S          JUNCTION      0.00    12.39     0  12:30           0       0.087       0.078
  MA02014504S          JUNCTION      0.00    59.61     0  12:11           0        2.39       0.009
  MA02014505S          JUNCTION      0.00    59.61     0  12:10           0        2.39       0.016
  MA02014506S          JUNCTION      0.00    59.61     0  12:12           0        2.39      -0.012
  MA02014507S          JUNCTION      0.00    59.61     0  12:10           0        2.39       0.032
  MA02014508S          JUNCTION     91.81    91.81     0  12:30        2.59        2.59       0.072
  MA02014510S          JUNCTION      0.00     1.48     0  12:05           0     0.00204       0.293
  MA020145X            JUNCTION      0.00   246.49     0  12:29           0           9       0.057
  MA020147X            JUNCTION      3.01   179.34     0  12:30       0.112        6.62       0.137
  MA02014802S          JUNCTION      0.00    95.29     0  12:30           0        3.19       0.038
  MA02014803S          JUNCTION      0.00    95.29     0  12:30           0        3.19       0.007
  MA020148X            JUNCTION      0.00   176.98     0  12:30           0        6.52       0.067
  MA020149X            JUNCTION      0.00    82.09     0  12:35           0        3.33       0.097
  MA020150X            JUNCTION      0.00    82.10     0  12:34           0        3.33       0.202
  MA020151X            JUNCTION      0.00    82.10     0  12:34           0        3.34       0.146
  MA020152X            JUNCTION      0.00    82.11     0  12:34           0        3.34       0.157
  MA020153X            JUNCTION      0.00    82.11     0  12:32           0        3.36       0.488
  MA02015402S          JUNCTION      0.00    51.75     0  12:22           0        1.82       0.002
  MA02015403S          JUNCTION      0.00    51.79     0  12:18           0        1.82      -0.049
  MA02015404S          JUNCTION      0.00    51.92     0  12:18           0        1.82       0.141
  MA02015405S          JUNCTION      0.00    51.93     0  12:18           0        1.82       0.014
  MA02015406S          JUNCTION      0.00    51.92     0  12:18           0        1.82      -0.016
  MA02015407S          JUNCTION     74.11    74.11     0  12:30        1.91        1.91       0.007
  MA02015412S          JUNCTION      0.00    30.49     0  12:11           0        1.55      -0.009
  MA02015414S          JUNCTION      0.00    30.36     0  12:22           0        1.55       0.067
  MA02015415S          JUNCTION      0.00    30.36     0  12:31           0        1.55       0.051
  MA02015416S          JUNCTION      0.00    30.36     0  12:19           0        1.55       0.023
  MA02015417S          JUNCTION     70.76    70.76     0  12:30        1.82        1.82       0.010
  MA020154X            JUNCTION      0.00    82.11     0  12:32           0        3.37       0.315
  MA030101X            JUNCTION     45.43    96.44     0  12:29        1.04        3.19      -0.030
  MA030102X            JUNCTION      0.00    52.81     0  12:25           0        2.15       0.260
  MA030103X            JUNCTION      0.00    57.24     0  12:21           0        2.16       0.405
  MA030104X            JUNCTION      0.00    54.97     0  12:19           0        2.17       0.336
  MA030105X            JUNCTION      0.00    53.16     0  12:21           0        2.18       0.536
  MA030106X            JUNCTION      0.00    52.68     0  12:37           0         2.2       0.682
  MA030107X            JUNCTION      0.00    53.03     0  12:36           0         2.2       0.204
[...]
  MA02014305S-1          10.07   0.00  0.00  0.00  0.00  0.18  0.00  0.82  0.06  0.00
  MA02014305S-2           1.00   0.86  0.00  0.00  0.00  0.00  0.00  0.14  0.00  0.00
  MA02014306S             1.00   0.91  0.09  0.00  0.00  0.00  0.00  0.00  0.00  0.00
  MA020143X               1.00   0.00  0.00  0.00  0.99  0.00  0.00  0.00  0.00  0.00
  MA020144X              23.39   0.00  0.00  0.00  0.99  0.00  0.00  0.00  0.05  0.00
  MA02014502S             4.44   0.40  0.00  0.00  0.15  0.00  0.00  0.45  0.00  0.00
  MA02014504S             7.01   0.00  0.00  0.00  0.12  0.21  0.00  0.67  0.16  0.00
  MA02014505S             1.24   0.00  0.00  0.00  0.00  0.00  0.00  1.00  0.00  0.00
  MA02014506S             1.00   0.00  0.00  0.00  0.00  0.00  0.00  1.00  0.00  0.00
  MA02014507S             2.13   0.00  0.00  0.00  0.06  0.00  0.00  0.93  0.00  0.00
  MA02014508S             1.07   0.00  0.00  0.00  0.13  0.00  0.00  0.87  0.00  0.00
  MA02014510S             7.72   0.82  0.03  0.00  0.15  0.00  0.00  0.00  0.45  0.00
  MA020145X               4.39   0.00  0.00  0.00  0.99  0.00  0.00  0.00  0.78  0.00
  MA020147X               1.42   0.00  0.00  0.00  0.99  0.00  0.00  0.00  0.12  0.00
  MA02014802S             1.30   0.00  0.00  0.00  0.00  0.04  0.00  0.95  0.00  0.00
  MA02014803S             5.17   0.00  0.00  0.00  1.00  0.00  0.00  0.00  0.00  0.00
  MA02014804S             2.18   0.00  0.00  0.00  0.00  0.24  0.00  0.75  0.09  0.00
  MA020148X               1.00   0.00  0.00  0.00  1.00  0.00  0.00  0.00  0.96  0.00
  MA020149X               1.29   0.00  0.02  0.00  0.97  0.00  0.00  0.00  0.90  0.00
  MA020150X               1.77   0.02  0.00  0.00  0.98  0.00  0.00  0.00  0.00  0.00
  MA020151X               2.99   0.02  0.00  0.00  0.98  0.01  0.00  0.00  0.88  0.00
  MA020152X               5.03   0.01  0.00  0.00  0.98  0.01  0.00  0.00  0.00  0.00
  MA020153X               4.20   0.01  0.01  0.00  0.99  0.00  0.00  0.00  0.00  0.00
  MA02015402S             2.72   0.00  0.00  0.00  0.91  0.08  0.00  0.00  0.93  0.00
  MA02015403S             3.41   0.00  0.00  0.00  0.00  0.00  0.00  1.00  0.00  0.00
  MA02015404S             3.54   0.00  0.00  0.00  0.13  0.00  0.00  0.86  0.00  0.00
  MA02015405S            15.58   0.00  0.00  0.00  0.22  0.78  0.00  0.00  0.00  0.00
  MA02015406S             4.15   0.00  0.00  0.00  1.00  0.00  0.00  0.00  0.46  0.00
  MA02015407S            19.43   0.00  0.00  0.00  0.04  0.14  0.00  0.82  0.04  0.00
  MA02015412S             2.48   0.00  0.00  0.00  0.98  0.01  0.00  0.00  0.87  0.00
  MA02015413S             1.67   0.00  0.00  0.00  0.08  0.04  0.00  0.88  0.00  0.00
  MA02015414S            41.70   0.00  0.00  0.00  0.13  0.00  0.86  0.00  0.00  0.00
  MA02015415S             1.00   0.00  0.00  0.00  0.00  0.18  0.00  0.81  0.07  0.00
  MA02015416S             1.00   0.00  0.00  0.00  0.00  0.00  0.00  1.00  0.00  0.00
  MA02015417S             1.21   0.00  0.00  0.00  0.00  0.00  0.00  1.00  0.00  0.00
  MA020154X              12.41   0.00  0.00  0.00  0.99  0.00  0.00  0.00  0.03  0.00
  MA030102X              10.13   0.00  0.03  0.00  0.57  0.40  0.00  0.00  0.26  0.00
  MA030103X               7.34   0.03  0.00  0.00  0.97  0.01  0.00  0.00  0.00  0.00
  MA030104X               7.93   0.02  0.00  0.00  0.88  0.10  0.00  0.00  0.03  0.00
  MA030105X              20.57   0.02  0.00  0.00  0.98  0.00  0.00  0.00  0.03  0.00
  MA030106X             101.19   0.02  0.00  0.00  0.98  0.00  0.00  0.00  0.00  0.00
  MA030107X               4.25   0.02  0.00  0.00  0.98  0.00  0.00  0.00  0.18  0.00
  MA030108X               3.86   0.01  0.00  0.00  0.98  0.00  0.00  0.00  0.85  0.00
  MA030109X              14.99   0.01  0.00  0.00  0.98  0.01  0.00  0.00  0.83  0.00
  MA030110X              48.37   0.01  0.00  0.00  0.98  0.01  0.00  0.00  0.87  0.00
  MA030111X               7.75   0.01  0.01  0.00  0.99  0.00  0.00  0.00  0.00  0.00
  MA030112X              23.63   0.01  0.00  0.00  0.99  0.00  0.00  0.00  0.00  0.00
  MA0301202S             26.05   0.00  0.00  0.00  0.99  0.00  0.00  0.00  0.00  0.00
  MA0301203S              2.83   0.00  0.00  0.00  0.99  0.00  0.00  0.00  0.90  0.00
  MA0301204S              1.34   0.00  0.00  0.00  0.08  0.04  0.00  0.88  0.01  0.00
  MA0301205S              2.58   0.00  0.00  0.00  0.06  0.00  0.00  0.94  0.00  0.00
  MA0301206S              3.18   0.00  0.00  0.00  0.12  0.07  0.00  0.80  0.00  0.00
  MA0301207S              2.43   0.00  0.00  0.00  0.10  0.00  0.00  0.89  0.00  0.00
  MA0301208S              2.52   0.01  0.78  0.00  0.21  0.00  0.00  0.00  0.45  0.00
  PIPE-362                4.36   0.00  0.00  0.00  0.08  0.06  0.00  0.86  0.02  0.00
  PIPE-366                8.36   0.01  0.00  0.00  0.14  0.00  0.00  0.86  0.00  0.00
  PIPE-372                1.00   0.00  0.00  0.00  0.11  0.09  0.00  0.79  0.00  0.00
  PIPE433                24.39   0.01  0.00  0.00  0.99  0.00  0.00  0.00  0.03  0.00
  
  
  *************************
  Conduit Surcharge Summary
  *************************
  
  ----------------------------------------------------------------------------
                                                           Hours        Hours 
                         --------- Hours Full --------   Above Full   Capacity
  Conduit                Both Ends  Upstream  Dnstream   Normal Flow   Limited
  ----------------------------------------------------------------------------
  CDT-33                      0.01      0.01      0.01      0.78         0.01
  CONNECT10                   0.32      0.47      0.32      1.62         0.32
  CONNECT11                   1.11      1.11      1.80      0.01         0.01
  CONNECT19                   0.94      0.94      1.32      0.01         0.01
  CONNECT20                   0.86      0.86      1.55      0.01         0.01
  CONNECT21                   1.63      1.63      2.59      0.01         0.01
  CONNECT29                   0.01      0.01      1.12      0.01         0.01
  MA01012205S                 0.01      1.04      0.01      0.97         0.01
  MA01012206S                 1.02      1.07      1.02      1.04         1.02
  MA010129X                   0.01      0.01      0.01      0.77         0.01
  MA010130X                   0.01      0.01      0.01      2.08         0.01
  MA01014002S                 0.01      0.01      0.93      0.01         0.01
  MA01014006S                 0.56      0.59      0.56      0.01         0.56
  MA01014102S                 1.18      1.18      1.56      0.01         0.05
  MA01014103S                 1.13      1.13      1.18      0.49         0.69
  MA01014104S                 0.60      0.60      1.21      0.01         0.01
  MA01014402S                 0.01      0.01      0.80      0.01         0.01
  MA01014404S                 0.01      0.61      0.01      0.01         0.01
  MA01014405S                 0.57      0.58      0.61      0.41         0.54
  MA01015102S                 0.83      0.84      0.94      0.01         0.56
  MA01015103S                 0.64      0.66      0.78      0.01         0.52
  MA01015104S                 0.01      0.01      0.58      0.01         0.01
  MA01015105S                 0.01      0.01      0.13      0.01         0.01
  MA01015108S                 0.01      0.54      0.01      0.01         0.01
  MA01015109S                 0.54      0.60      0.54      0.42         0.54
  MA01015110S                 0.45      0.45      0.60      0.01         0.01
  MA0101543S                  0.66      0.67      0.66      0.01         0.22
  MA01015702S                 0.68      0.68      1.12      0.01         0.01
  MA01015703S                 0.66      0.66      0.68      0.01         0.58
  MA01015704S                 0.50      0.50      0.66      0.01         0.01
  MA01015705S                 0.42      0.42      0.49      0.01         0.01
  MA01015706S                 0.42      0.46      0.42      0.01         0.42
  MA01015707S                 0.28      0.64      0.28      0.79         0.28
  MA01015708S                 0.62      0.69      0.62      0.01         0.47
  MA01015709S                 0.68      0.68      0.68      0.01         0.34
  MA01015710S                 0.68      0.68      0.68      0.01         0.30
  MA01015711S                 0.67      0.68      0.68      0.01         0.66
  MA01015712S                 0.66      0.69      0.66      0.01         0.66
  MA01015713S                 0.44      0.44      0.68      0.01         0.01
  MA01015714S                 0.01      0.01      0.44      0.01         0.01
  MA01015715S                 0.01      0.43      0.01      0.01         0.01
  MA01015716S                 0.39      0.69      0.39      0.01         0.39
  MA01015717S                 0.01      0.01      0.69      0.01         0.01
  MA01015718S                 0.01      0.01      0.01      1.03         0.01
  MA01015719S                 0.01      0.63      0.01      0.01         0.01
  MA01015720S                 0.73      0.77      0.73      0.01         0.73
  MA01015721S                 0.77      0.83      0.77      0.66         0.77
  MA01015722S                 0.79      0.79      0.83      0.01         0.71
  MA01015723S                 0.79      0.79      0.79      0.56         0.78
  MA01015724S                 0.74      0.74      0.78      0.01         0.01
  MA01015725S                 0.71      0.71      0.74      0.01         0.01
  MA01015726S                 0.63      0.65      0.63      0.01         0.63
  MA01015727S                 0.64      0.66      0.65      0.01         0.64
  MA01015728S                 0.63      0.63      0.66      0.01         0.50
  MA01015729S                 0.61      0.62      0.62      0.01         0.56
  MA01015730S                 0.56      0.56      0.62      0.01         0.01
  MA01015731S                 0.59      0.60      0.60      0.01         0.51
  MA01015732S                 0.66      0.81      0.66      0.01         0.66
  MA01015733S                 0.61      0.61      0.80      0.01         0.52
  MA01015734S                 0.61      0.77      0.61      0.01         0.61
  MA01015735S                 0.54      0.54      0.77      0.01         0.01
  MA01015739S                 0.34      0.34      0.84      0.01         0.01
  MA01015741S                 0.34      0.35      0.36      0.01         0.01
  MA01015742S                 0.35      0.36      0.40      0.56         0.01
  MA01015743S                 0.28      0.28      0.32      0.01         0.01
  MA01015744S                 0.26      0.26      0.28      0.01         0.01
  MA01015745S                 0.25      0.31      0.25      0.01         0.25
  MA01015746S                 0.24      0.36      0.24      0.21         0.24
  MA01015747S                 0.17      0.17      0.38      0.01         0.01
  MA0101574S                  0.35      0.35      0.36      0.32         0.28
  MA01015901S                 0.73      0.73      0.87      0.01         0.01
  MA01015902S                 0.65      0.65      0.72      0.01         0.01
  MA01015903S                 0.56      0.56      0.64      0.01         0.01
  MA01015904S                 0.52      0.52      0.55      0.01         0.01
  MA01015905S                 0.50      0.50      0.53      0.01         0.01
  MA01015906S                 0.43      0.43      0.62      0.01         0.01
  MA01015907S                 0.46      0.46      0.74      0.01         0.01
  MA01015908S                 0.47      0.48      0.47      0.01         0.46
  MA01015909S                 0.48      0.50      0.48      0.01         0.48
  MA01015910S                 0.41      0.41      0.59      0.01         0.01
  MA01015911S                 0.01      0.76      0.01      1.35         0.01
  MA01015912S                 0.65      0.65      0.71      0.58         0.58
  MA01015913S                 0.52      0.52      0.88      0.01         0.01
  MA01015915S-1               0.01      0.01      3.97      0.01         0.01
  MA01015916S                 0.56      0.56      0.65      0.01         0.01
  MA01015918S                 0.01      0.01      0.60      0.01         0.01
  MA01015919S                 0.55      0.55      0.93      0.47         0.52
  MA01015920S                 0.43      0.43      0.57      0.01         0.01
  MA01015924S                 0.49      0.49      0.50      0.01         0.01
  MA01015925S                 0.41      0.41      0.49      0.01         0.01
  MA01015926S                 0.01      0.01      0.40      0.01         0.01
  MA01015928S                22.14     22.14     22.16      0.58         0.86
  MA01015929S                 0.74      0.74     22.12      0.47         0.54
  MA01015930S                 0.46      0.46      0.73      0.01         0.01
  MA01015935S                 0.46      0.55      0.46      0.53         0.46
  MA01015936S                 0.38      0.38      0.54      0.01         0.01
  MA01015937S                 0.26      0.26      0.38      0.01         0.01
  MA01015938S                 0.26      0.26      1.25      0.01         0.01
  MA01015939S                 0.29      0.29      0.91      0.01         0.01
  MA01015940S                 0.25      0.40      0.25      0.41         0.25
  MA01015941S                 0.01      0.01      0.32      0.01         0.01
  MA01015942S                 0.01      0.01     11.50      0.01         0.01
  MA01016001S                 1.17      1.17     11.17      0.01         0.01
  MA01016003S                 1.39      1.39      1.39      0.01         1.34
  MA01016003S-N0              1.07      1.07      1.38      0.01         0.01
  MA01016004S                 0.54      0.66      0.54      0.75         0.54
  MA01016005S                 0.61      0.61      0.66      0.01         0.01
  MA01016006S                 0.61      0.62      0.61      0.01         0.61
  MA01016007S                 0.62      0.62      0.64      0.01         0.01
  MA01016008S                 0.61      0.73      0.61      0.01         0.61
  MA01016009S                 0.68      0.68      0.72      0.01         0.03
  MA01016010S                 0.66      0.66      0.68      0.01         0.15
  MA01016011S                 0.58      0.58      0.66      0.01         0.01
  MA01016012S                 0.54      0.54      0.62      0.01         0.01
  MA01016013S                 0.31      0.31      0.54      0.01         0.01
  MA01016014S                 0.31      0.64      0.31      0.60         0.31
  MA01016015S                 0.57      0.57      0.72      0.01         0.19
  MA01016016S                 0.57      0.95      0.57      0.61         0.57
  MA01016017S                 0.74      0.74      0.76      0.01         0.70
  MA010160185                 0.76      0.76      0.98      0.01         0.01
  MA01016018S-1               0.92      0.98      0.92      0.77         0.92
  MA01016019S                 0.67      0.67      0.76      0.01         0.01
  MA01016020S                 0.63      0.63      0.67      0.01         0.01
  MA01016021S                 0.44      0.44      0.63      0.01         0.01
  MA01016022S                 0.01      0.01      0.44      0.01         0.01
  MA01016041S                 0.58      0.71      0.58      0.01         0.58
  MA01016042S                 0.69      0.89      0.69      0.20         0.69
  MA01016043S                 0.79      0.79      0.85      0.01         0.77
  MA01016044S                 0.78      0.78      0.79      0.01         0.69
  MA01016045S                 0.74      0.74      0.78      0.01         0.01
  MA01016046S                 0.71      0.71      0.73      0.01         0.30
  MA01016047S                 0.68      0.70      0.68      0.65         0.68
  MA01016048S                 0.64      0.64      0.70      0.01         0.01
  MA01016049S                 0.56      0.56      0.66      0.01         0.01
  MA01016050S                 0.54      0.58      0.54      0.01         0.54
  MA01016051S                 0.57      0.80      0.57      0.83         0.57
  MA01016052S                 0.71      0.71      0.80      0.01         0.63
  MA01016053S                 0.66      0.66      0.71      0.28         0.01
  MA01016054S                 0.57      0.57      0.59      0.01         0.01
  MA0106002S                  1.39      1.39     11.17      0.01         0.01
  MA02010806S                 0.01      0.09      0.01      0.01         0.01
  MA02010807S                 0.07      0.07      0.08      0.01         0.01
  MA02011601S-N1              0.01      0.01      0.60      0.01         0.01
  MA02011602S                 0.01      0.01      0.33      0.01         0.01
  MA02011603S                 0.01      0.15      0.01      0.01         0.01
  MA02011605S                 0.12      0.17      0.12      0.09         0.12
  MA02012502S                 0.01      0.01      0.44      0.01         0.01
  MA02012503S                 0.01      0.01     20.31      0.01         0.01
  MA02012504S                 0.01      0.01     20.32      0.01         0.01
  MA02012505S                 0.01      0.01      2.01      0.01         0.01
  MA02012506S                 0.01      1.25      0.01      1.45         0.01
  MA02012507S                 0.01      0.01      1.15      0.01         0.01
  MA02013202S                 0.01      0.52      0.01      0.01         0.01
  MA02013204S                 0.01      0.70      0.01      0.65         0.01
  MA02013205S                 0.58      0.58      0.69      0.47         0.54
  MA02013403S                 0.25      0.32      0.25      0.01         0.25
  MA02013404S                 0.01      0.07      0.01      0.01         0.01
  MA02013405S                 0.07      0.25      0.07      0.01         0.07
  MA02014304S                 0.01      0.40      0.01      0.70         0.01
  MA02014305S-1               0.01      0.01      0.30      0.01         0.01
  MA02014502S                 0.16      0.16      0.18      0.01         0.11
  MA02014504S                 0.15      0.15      0.65      0.01         0.01
  MA02014505S                 0.01      0.46      0.01      0.01         0.01
  MA02014506S                 0.01      0.46      0.01      0.01         0.01
  MA02014507S                 0.42      0.49      0.42      0.01         0.42
  MA02014508S                 0.49      0.58      0.49      0.58         0.49
  MA02014510S                 0.45      0.45      0.49      0.01         0.01
  MA02014803S                 0.01      0.19      0.01      0.65         0.01
  MA02014804S                 0.01      0.01      0.18      0.01         0.01
  MA02015405S                 0.46      0.54      0.46      0.01         0.46
  MA02015406S                 0.30      0.46      0.30      0.01         0.30
  MA02015407S                 0.26      0.26      0.42      0.01         0.01
  MA02015417S                 0.01      0.69      0.01      0.01         0.01
  MA0301202S                  1.55      1.55      1.73      0.46         0.01
  MA0301203S                  0.68      0.68      1.13      0.01         0.01
  MA0301204S                  0.50      0.50      0.61      0.01         0.01
  MA0301205S                  0.47      0.53      0.47      0.01         0.47
  MA0301206S                  0.51      0.54      0.51      0.01         0.51
  MA0301207S                  0.51      0.56      0.51      0.01         0.51
  MA0301208S                  0.50      0.50      0.62      0.01         0.01
  PIPE-362                    0.01      0.01      0.05      0.01         0.01
  PIPE-366                    0.01      0.01      0.01      0.07         0.01
  PIPE-372                    0.12      0.12      0.13      0.01         0.11
  PIPE433                     0.01      0.01      0.52      0.01         0.01
  

  Analysis begun on:  Tue Aug 31 20:41:53 2021
  Analysis ended on:  Tue Aug 31 20:42:09 2021
  Total elapsed time: 00:00:16