
  EPA STORM WATER MANAGEMENT MODEL - VERSION 5.2 (Build 5.2.4)
  ------------------------------------------------------------

  ų▓╬’į░ 
  
  ****************
  Analysis Options
  ****************
  Flow Units ............... CMS
  Process Models:
    Rainfall/Runoff ........ YES
    RDII ................... NO
    Snowmelt ............... NO
    Groundwater ............ NO
    Flow Routing ........... NO
    Water Quality .......... NO
  Infiltration Method ...... GREEN_AMPT
  Surcharge Method ......... EXTRAN
  Starting Date ............ 08/26/2013 00:00:00
  Ending Date .............. 08/26/2013 05:00:00
  Antecedent Dry Days ...... 35.0
  Report Time Step ......... 00:05:00
  Wet Time Step ............ 00:01:00
  Dry Time Step ............ 01:00:00
  
  
  **************************        Volume         Depth
  Runoff Quantity Continuity     hectare-m            mm
  **************************     ---------       -------
  Initial LID Storage ......         0.000         0.017
  Total Precipitation ......         0.172        52.216
  Evaporation Loss .........         0.000         0.000
  Infiltration Loss ........         0.003         0.766
  Surface Runoff ...........         0.107        32.371
  Final Storage ............         0.063        19.074
  Continuity Error (%) .....         0.044
  
  
  **************************        Volume        Volume
  Flow Routing Continuity        hectare-m      10^6 ltr
  **************************     ---------     ---------
  Dry Weather Inflow .......         0.000         0.000
  Wet Weather Inflow .......         0.107         1.066
  Groundwater Inflow .......         0.000         0.000
  RDII Inflow ..............         0.000         0.000
  External Inflow ..........         0.000         0.000
  External Outflow .........         0.107         1.066
  Flooding Loss ............         0.000         0.000
  Evaporation Loss .........         0.000         0.000
  Exfiltration Loss ........         0.000         0.000
  Initial Stored Volume ....         0.000         0.000
  Final Stored Volume ......         0.000         0.000
  Continuity Error (%) .....         0.000
  
  
  ***************************
  Subcatchment Runoff Summary
  ***************************
  
  ------------------------------------------------------------------------------------------------------------------------------
                            Total      Total      Total      Total     Imperv       Perv      Total       Total     Peak  Runoff
                           Precip      Runon       Evap      Infil     Runoff     Runoff     Runoff      Runoff   Runoff   Coeff
  Subcatchment                 mm         mm         mm         mm         mm         mm         mm    10^6 ltr      CMS
  ------------------------------------------------------------------------------------------------------------------------------
  S1                        52.22       0.00       0.00       0.00       0.00       0.00       0.00        0.00     0.00   0.000
  S2                        52.22       0.00       0.00       0.00      47.79       0.00      47.79        0.43     0.11   0.915
  S3                        52.22       0.00       0.00       0.00      47.04       0.00      47.04        0.43     0.11   0.901
  S4                        52.22       0.00       0.00       0.78      32.48      10.61      43.09        0.04     0.02   0.825
  S5                        52.22       0.00       0.00       3.90       0.00      39.20      39.20        0.20     0.03   0.751
  Swale1                    52.22    4140.81       0.00       3.63       0.00       0.00    4186.28        0.44     0.11   0.998
  Swale2                    52.22    4075.78       0.00       3.95       0.00       0.00    4120.91        0.43     0.11   0.998
  Swale3                    52.22   10478.83       0.00       4.59       0.00       0.00   10517.58        1.05     0.27   0.999
  Swale4                    52.22    2695.86       0.00       4.60       0.00       0.00    2734.16        1.07     0.27   0.995
  Swale5                    52.22    4218.62       0.00       4.56       0.00       0.00    4257.53        1.01     0.26   0.997
  Bio1                      52.22    3633.84       0.00       2.14       0.00       0.00    3334.31        0.80     0.23   0.905
  

  ***********************
  LID Performance Summary
  ***********************

  --------------------------------------------------------------------------------------------------------------------
                                         Total      Evap     Infil   Surface    Drain    Initial     Final  Continuity
                                        Inflow      Loss      Loss   Outflow   Outflow   Storage   Storage       Error
  Subcatchment      LID Control             mm        mm        mm        mm        mm        mm        mm           %
  --------------------------------------------------------------------------------------------------------------------
  S1                Barrel               52.22      0.00      0.00      0.00      0.00      0.00     52.22        0.00
  Swale1            Swale              4193.03      0.00      3.63   4186.28      0.00      0.00      3.19       -0.00
  Swale2            Swale              4127.99      0.00      3.95   4120.91      0.00      0.00      3.19       -0.00
  Swale3            Swale             10531.04      0.00      4.59  10517.59      0.00      0.00      9.01       -0.00
  Swale4            Swale              2748.08      0.00      4.60   2734.16      0.00      0.00      9.43       -0.00
  Swale5            Swale              4270.84      0.00      4.56   4257.53      0.00      0.00      8.85       -0.00
  Bio1              bio                3686.06      0.00      2.14   3334.32      0.00      2.40    352.00       -0.00

  Analysis begun on:  Wed Jun 24 16:59:15 2026
  Analysis ended on:  Wed Jun 24 16:59:15 2026
  Total elapsed time: < 1 sec