
  EPA STORM WATER MANAGEMENT MODEL - VERSION 5.2 (Build 5.2.4)
  ------------------------------------------------------------

  Scenario Run :  NRCSDMENSIONLESS 
  
  *************
  Element Count
  *************
  Number of rain gages ...... 2
  Number of subcatchments ... 39
  Number of nodes ........... 6
  Number of links ........... 5
  Number of pollutants ...... 0
  Number of land uses ....... 0
  
  
  ****************
  Raingage Summary
  ****************
                                                      Data       Recording
  Name                 Data Source                    Type       Interval 
  ------------------------------------------------------------------------
  GAGE98               25YEAR                         INTENSITY   60 min.
  GAGE500YEAR          500YEAR                        INTENSITY   60 min.
  
  
  ********************
  Subcatchment Summary
  ********************
  Name                       Area     Width   %Imperv    %Slope Rain Gage            Outlet              
  -----------------------------------------------------------------------------------------------------------
  45                         1.00     45.00      0.00    1.0000 GAGE98               A                   
  47.5                       1.00     47.50      0.00    1.0000 GAGE98               A                   
  50                         1.00     50.00      0.00    1.0000 GAGE98               A                   
  52.5                       1.00     52.50      0.00    1.0000 GAGE98               A                   
  55                         1.00     55.00      0.00    1.0000 GAGE98               A                   
  57.5                       1.00     57.50      0.00    1.0000 GAGE98               A                   
  60                         1.00     60.00      0.00    1.0000 GAGE98               A                   
  62.5                       1.00     62.50      0.00    1.0000 GAGE98               A                   
  65                         1.00     65.00      0.00    1.0000 GAGE98               A                   
  67.5                       1.00     67.50      0.00    1.0000 GAGE98               A                   
  70                         1.00     70.00      0.00    1.0000 GAGE98               A                   
  72.5                       1.00     72.50      0.00    1.0000 GAGE98               A                   
  75                         1.00     75.00      0.00    1.0000 GAGE98               A                   
  77.5                       1.00     77.50      0.00    1.0000 GAGE98               A                   
  80                         1.00     80.00      0.00    1.0000 GAGE98               A                   
  82.5                       1.00     82.50      0.00    1.0000 GAGE98               A                   
  85                         1.00     85.00      0.00    1.0000 GAGE98               A                   
  84                         1.00     84.00      0.00    1.0000 GAGE98               A                   
  83                         1.00     83.00      0.00    1.0000 GAGE98               A                   
  82                         1.00     82.00      0.00    1.0000 GAGE98               A                   
  81                         1.00     81.00      0.00    1.0000 GAGE98               A                   
  86.5                       1.00     86.50      0.00    1.0000 GAGE98               A                   
  87                         1.00     87.00      0.00    1.0000 GAGE98               A                   
  86                         1.00     86.00      0.00    1.0000 GAGE98               A                   
  88                         1.00     88.00      0.00    1.0000 GAGE98               A                   
  87.5                       1.00     87.50      0.00    1.0000 GAGE98               A                   
  89                         1.00     89.00      0.00    1.0000 GAGE98               A                   
  90                         1.00     90.00      0.00    1.0000 GAGE98               A                   
  92.5                       1.00     92.50      0.00    1.0000 GAGE98               A                   
  91                         1.00     91.00      0.00    1.0000 GAGE98               A                   
  92                         1.00     92.00      0.00    1.0000 GAGE98               A                   
  93                         1.00     93.00      0.00    1.0000 GAGE98               A                   
  94                         1.00     94.00      0.00    1.0000 GAGE98               A                   
  95                         1.00     95.00      0.00    1.0000 GAGE98               A                   
  96.5                       1.00     96.50      0.00    1.0000 GAGE98               A                   
  97                         1.00     97.00      0.00    1.0000 GAGE98               A                   
  96                         1.00     96.00      0.00    1.0000 GAGE98               A                   
  98                         1.00     98.00      0.00    1.0000 GAGE98               A                   
  99                         1.00     99.00      0.00    1.0000 GAGE98               A                   
  
  
  ************
  Node Summary
  ************
                                           Invert      Max.    Ponded    External
  Name                 Type                 Elev.     Depth      Area    Inflow  
  -------------------------------------------------------------------------------
  D                    JUNCTION              1.10     20.00       0.0    Yes
  A                    JUNCTION              9.00     20.00       0.0    Yes
  B                    JUNCTION              8.00      6.00       0.0    Yes
  E                    JUNCTION              0.50      4.00       0.0
  C                    JUNCTION              3.00      5.00       0.0    Yes
  OUTLET               OUTFALL               0.00      0.30       0.0
  
  
  ************
  Link Summary
  ************
  Name             From Node        To Node          Type            Length    %Slope Roughness
  ---------------------------------------------------------------------------------------------
  A                D                E                CONDUIT          220.0    0.2727    0.0150
  B                C                D                CONDUIT          182.8    1.0396    0.0150
  C                A                B                CONDUIT          505.0    0.1980    0.0240
  D                B                C                CONDUIT          263.3    1.8996    0.0240
  F                E                OUTLET           CONDUIT          255.2    0.1959    0.0150
  
  
  *********************
  Cross Section Summary
  *********************
                                        Full     Full     Hyd.     Max.   No. of     Full
  Conduit          Shape               Depth     Area     Rad.    Width  Barrels     Flow
  ---------------------------------------------------------------------------------------
  A                CIRCULAR             0.30     0.07     0.07     0.30       98     0.07
  B                CIRCULAR             0.30     0.07     0.07     0.30       98     0.13
  C                CIRCULAR             0.30     0.07     0.07     0.30       98     0.03
  D                CIRCULAR             0.30     0.07     0.07     0.30       98     0.11
  F                CIRCULAR             0.30     0.07     0.07     0.30       98     0.06
  
  
  *************
  Shape Summary
  *************

  Shape CUNETTE
  Area:  
              0.0021     0.0070     0.0134     0.0209     0.0293 
              0.0384     0.0483     0.0588     0.0699     0.0814 
              0.0934     0.1058     0.1185     0.1315     0.1449 
              0.1653     0.1930     0.2210     0.2494     0.2781 
              0.3071     0.3362     0.3654     0.3948     0.4242 
              0.4536     0.4829     0.5122     0.5413     0.5703 
              0.5989     0.6273     0.6554     0.6830     0.7102 
              0.7369     0.7630     0.7885     0.8132     0.8372 
              0.8603     0.8823     0.9033     0.9231     0.9415 
              0.9583     0.9733     0.9860     0.9959     1.0000 
  Hrad:  
              0.0455     0.1052     0.1583     0.2070     0.2522 
              0.2943     0.3337     0.3707     0.4056     0.4386 
              0.4697     0.4992     0.5272     0.5536     0.5787 
              0.4151     0.4690     0.5207     0.5703     0.6179 
              0.6636     0.7073     0.7492     0.7893     0.8275 
              0.8639     0.8985     0.9314     0.9623     0.9915 
              1.0188     1.0443     1.0678     1.0895     1.1091 
              1.1267     1.1422     1.1555     1.1665     1.1752 
              1.1813     1.1847     1.1852     1.1825     1.1761 
              1.1654     1.1495     1.1265     1.0918     1.0000 
  Width: 
              0.1400     0.1960     0.2375     0.2713     0.3000 
              0.3250     0.3470     0.3666     0.3842     0.4000 
              0.4143     0.4271     0.4386     0.4490     0.4582 
              0.9330     0.9474     0.9600     0.9708     0.9798 
              0.9871     0.9928     0.9968     0.9992     1.0000 
              0.9992     0.9968     0.9928     0.9871     0.9798 
              0.9708     0.9600     0.9474     0.9330     0.9165 
              0.8980     0.8773     0.8542     0.8285     0.8000 
              0.7684     0.7332     0.6940     0.6499     0.6000 
              0.5426     0.4750     0.3919     0.2800     0.0000 
  
  
  ****************
  Analysis Options
  ****************
  Flow Units ............... CFS
  Process Models:
    Rainfall/Runoff ........ YES
    RDII ................... YES
    Snowmelt ............... NO
    Groundwater ............ NO
    Flow Routing ........... YES
    Ponding Allowed ........ NO
    Water Quality .......... NO
  Infiltration Method ...... CURVE_NUMBER
  Flow Routing Method ...... DYNWAVE
  Surcharge Method ......... EXTRAN
  Starting Date ............ 07/15/1977 00:00:00
  Ending Date .............. 07/16/1977 06:00:00
  Antecedent Dry Days ...... 7.0
  Report Time Step ......... 00:01:00
  Wet Time Step ............ 00:05:00
  Dry Time Step ............ 00:05:00
  Routing Time Step ........ 10.00 sec
  Variable Time Step ....... YES
  Maximum Trials ........... 4
  Number of Threads ........ 1
  Head Tolerance ........... 0.005000 ft
  
  
  **************************        Volume         Depth
  Runoff Quantity Continuity     acre-feet        inches
  **************************     ---------       -------
  Total Precipitation ......        16.250         5.000
  Evaporation Loss .........         0.000         0.000
  Infiltration Loss ........         6.824         2.100
  Surface Runoff ...........         9.337         2.873
  Final Storage ............         0.118         0.036
  Continuity Error (%) .....        -0.184
  
  
  **************************        Volume        Volume
  Flow Routing Continuity        acre-feet      10^6 gal
  **************************     ---------     ---------
  Dry Weather Inflow .......         0.310         0.101
  Wet Weather Inflow .......         9.337         3.043
  Groundwater Inflow .......         0.000         0.000
  RDII Inflow ..............         0.000         0.000
  External Inflow ..........         0.000         0.000
  External Outflow .........         2.364         0.770
  Flooding Loss ............         7.202         2.347
  Evaporation Loss .........         0.000         0.000
  Exfiltration Loss ........         0.074         0.024
  Initial Stored Volume ....         0.000         0.000
  Final Stored Volume ......         0.009         0.003
  Continuity Error (%) .....        -0.011
  
  
  ***************************
  Time-Step Critical Elements
  ***************************
  None
  
  
  ********************************
  Highest Flow Instability Indexes
  ********************************
  All links are stable.
  
  
  *********************************
  Most Frequent Nonconverging Nodes
  *********************************
  Node OUTLET (1.25%)
  Node D (0.80%)
  Node A (0.71%)
  Node C (0.67%)
  Node B (0.56%)
  
  
  *************************
  Routing Time Step Summary
  *************************
  Minimum Time Step           :     1.07 sec
  Average Time Step           :    10.00 sec
  Maximum Time Step           :    10.00 sec
  % of Time in Steady State   :     0.00
  Average Iterations per Step :     2.03
  % of Steps Not Converging   :     1.25
  Time Step Frequencies       :
     10.000 -  1.585 sec      :    99.99 %
      1.585 -  0.251 sec      :     0.01 %
      0.251 -  0.040 sec      :     0.00 %
      0.040 -  0.006 sec      :     0.00 %
      0.006 -  0.001 sec      :     0.00 %
  
  
  ***************************
  Subcatchment Runoff Summary
  ***************************
  
  ------------------------------------------------------------------------------------------------------------------------------
                            Total      Total      Total      Total     Imperv       Perv      Total       Total     Peak  Runoff
                           Precip      Runon       Evap      Infil     Runoff     Runoff     Runoff      Runoff   Runoff   Coeff
  Subcatchment                 in         in         in         in         in         in         in    10^6 gal      CFS
  ------------------------------------------------------------------------------------------------------------------------------
  45                         5.00       0.00       0.00       4.52       0.00       0.48       0.48        0.01     1.18   0.097
  47.5                       5.00       0.00       0.00       4.43       0.00       0.57       0.57        0.02     1.35   0.114
  50                         5.00       0.00       0.00       4.34       0.00       0.67       0.67        0.02     1.52   0.134
  52.5                       5.00       0.00       0.00       4.23       0.00       0.77       0.77        0.02     1.70   0.155
  55                         5.00       0.00       0.00       4.10       0.00       0.89       0.89        0.02     1.89   0.178
  57.5                       5.00       0.00       0.00       3.99       0.00       1.02       1.02        0.03     2.08   0.203
  60                         5.00       0.00       0.00       3.84       0.00       1.15       1.15        0.03     2.28   0.230
  62.5                       5.00       0.00       0.00       3.71       0.00       1.30       1.30        0.04     2.48   0.260
  65                         5.00       0.00       0.00       3.53       0.00       1.46       1.46        0.04     2.68   0.291
  67.5                       5.00       0.00       0.00       3.38       0.00       1.62       1.62        0.04     2.89   0.325
  70                         5.00       0.00       0.00       3.20       0.00       1.80       1.80        0.05     3.10   0.361
  72.5                       5.00       0.00       0.00       2.97       0.00       2.00       2.00        0.05     3.30   0.399
  75                         5.00       0.00       0.00       2.77       0.00       2.20       2.20        0.06     3.51   0.440
  77.5                       5.00       0.00       0.00       2.55       0.00       2.41       2.41        0.07     3.71   0.483
  80                         5.00       0.00       0.00       2.35       0.00       2.64       2.64        0.07     3.91   0.528
  82.5                       5.00       0.00       0.00       2.08       0.00       2.88       2.88        0.08     4.10   0.577
  85                         5.00       0.00       0.00       1.76       0.00       3.19       3.19        0.09     4.28   0.638
  84                         5.00       0.00       0.00       1.90       0.00       3.05       3.05        0.08     4.20   0.610
  83                         5.00       0.00       0.00       2.05       0.00       2.93       2.93        0.08     4.13   0.587
  82                         5.00       0.00       0.00       2.14       0.00       2.83       2.83        0.08     4.06   0.567
  81                         5.00       0.00       0.00       2.23       0.00       2.74       2.74        0.07     3.98   0.547
  86.5                       5.00       0.00       0.00       1.56       0.00       3.39       3.39        0.09     4.38   0.679
  87                         5.00       0.00       0.00       1.49       0.00       3.46       3.46        0.09     4.41   0.692
  86                         5.00       0.00       0.00       1.63       0.00       3.33       3.33        0.09     4.34   0.666
  88                         5.00       0.00       0.00       1.36       0.00       3.59       3.59        0.10     4.48   0.718
  87.5                       5.00       0.00       0.00       1.43       0.00       3.53       3.53        0.10     4.44   0.705
  89                         5.00       0.00       0.00       1.24       0.00       3.72       3.72        0.10     4.54   0.744
  90                         5.00       0.00       0.00       1.11       0.00       3.85       3.85        0.10     4.60   0.769
  92.5                       5.00       0.00       0.00       0.81       0.00       4.15       4.15        0.11     4.73   0.829
  91                         5.00       0.00       0.00       0.99       0.00       3.97       3.97        0.11     4.65   0.794
  92                         5.00       0.00       0.00       0.87       0.00       4.09       4.09        0.11     4.71   0.817
  93                         5.00       0.00       0.00       0.75       0.00       4.20       4.20        0.11     4.76   0.841
  94                         5.00       0.00       0.00       0.64       0.00       4.32       4.32        0.12     4.80   0.864
  95                         5.00       0.00       0.00       0.53       0.00       4.43       4.43        0.12     4.84   0.886
  96.5                       5.00       0.00       0.00       0.36       0.00       4.60       4.60        0.12     4.90   0.919
  97                         5.00       0.00       0.00       0.31       0.00       4.65       4.65        0.13     4.91   0.930
  96                         5.00       0.00       0.00       0.42       0.00       4.54       4.54        0.12     4.88   0.908
  98                         5.00       0.00       0.00       0.20       0.00       4.76       4.76        0.13     4.94   0.951
  99                         5.00       0.00       0.00       0.10       0.00       4.86       4.86        0.13     4.96   0.972
  
  
  ******************
  Node Depth Summary
  ******************
  
  ---------------------------------------------------------------------------------
                                 Average  Maximum  Maximum  Time of Max    Reported
                                   Depth    Depth      HGL   Occurrence   Max Depth
  Node                 Type         Feet     Feet     Feet  days hr:min        Feet
  ---------------------------------------------------------------------------------
  D                    JUNCTION     0.24     4.05     5.15     0  03:37        4.05
  A                    JUNCTION     1.09    20.00    29.00     0  02:11       20.00
  B                    JUNCTION     0.31     6.00    14.00     0  02:19        6.00
  E                    JUNCTION     0.17     2.36     2.86     0  03:38        2.36
  C                    JUNCTION     0.22     4.04     7.04     0  03:38        4.04
  OUTLET               OUTFALL      0.03     0.21     0.21     0  02:38        0.21
  
  
  *******************
  Node Inflow Summary
  *******************
  
  -------------------------------------------------------------------------------------------------
                                  Maximum  Maximum                  Lateral       Total        Flow
                                  Lateral    Total  Time of Max      Inflow      Inflow     Balance
                                   Inflow   Inflow   Occurrence      Volume      Volume       Error
  Node                 Type           CFS      CFS  days hr:min    10^6 gal    10^6 gal     Percent
  -------------------------------------------------------------------------------------------------
  D                    JUNCTION      0.03    13.60     0  02:19      0.0253       0.793       0.120
  A                    JUNCTION    146.61   146.61     0  03:00        3.07        3.07       0.012
  B                    JUNCTION      0.03    16.49     0  02:14      0.0253       0.773       0.127
  E                    JUNCTION      0.00    13.76     0  02:19           0       0.784       0.067
  C                    JUNCTION      0.03    14.36     0  02:17      0.0253        0.77      -0.031
  OUTLET               OUTFALL       0.00    12.42     0  03:38           0        0.77       0.000
  
  
  **********************
  Node Surcharge Summary
  **********************
  
  Surcharging occurs when water rises above the top of the highest conduit.
  ---------------------------------------------------------------------
                                               Max. Height   Min. Depth
                                   Hours       Above Crown    Below Rim
  Node                 Type      Surcharged           Feet         Feet
  ---------------------------------------------------------------------
  D                    JUNCTION        1.76          3.748       15.952
  A                    JUNCTION        2.06         19.700        0.000
  B                    JUNCTION        1.51          5.700        0.000
  E                    JUNCTION        1.82          2.062        1.638
  C                    JUNCTION        1.59          3.743        0.957
  
  
  *********************
  Node Flooding Summary
  *********************
  
  Flooding refers to all water that overflows a node, whether it ponds or not.
  --------------------------------------------------------------------------
                                                             Total   Maximum
                                 Maximum   Time of Max       Flood    Ponded
                        Hours       Rate    Occurrence      Volume     Depth
  Node                 Flooded       CFS   days hr:min    10^6 gal      Feet
  --------------------------------------------------------------------------
  A                       1.44    133.38      0  03:00       2.319     0.000
  B                       1.32      0.78      0  02:37       0.027     0.000
  
  
  ***********************
  Outfall Loading Summary
  ***********************
  
  -----------------------------------------------------------
                         Flow       Avg       Max       Total
                         Freq      Flow      Flow      Volume
  Outfall Node           Pcnt       CFS       CFS    10^6 gal
  -----------------------------------------------------------
  OUTLET                99.06      0.96     12.42       0.770
  -----------------------------------------------------------
  System                99.06      0.96     12.42       0.770
  
  
  ********************
  Link Flow Summary
  ********************
  
  -----------------------------------------------------------------------------
                                 Maximum  Time of Max   Maximum    Max/    Max/
                                  |Flow|   Occurrence   |Veloc|    Full    Full
  Link                 Type          CFS  days hr:min    ft/sec    Flow   Depth
  -----------------------------------------------------------------------------
  A                    CONDUIT     13.76     0  02:19      2.14    2.16    1.00
  B                    CONDUIT     13.56     0  02:19      2.05    1.09    1.00
  C                    CONDUIT     16.46     0  02:14      2.71    4.85    1.00
  D                    CONDUIT     14.33     0  02:17      2.30    1.36    1.00
  F                    CONDUIT     12.42     0  03:38      1.99    2.30    0.84
  
  
  ***************************
  Flow Classification Summary
  ***************************
  
  -------------------------------------------------------------------------------------
                      Adjusted    ---------- Fraction of Time in Flow Class ---------- 
                       /Actual         Up    Down  Sub   Sup   Up    Down  Norm  Inlet 
  Conduit               Length    Dry  Dry   Dry   Crit  Crit  Crit  Crit  Ltd   Ctrl  
  -------------------------------------------------------------------------------------
  A                       1.00   0.00  0.00  0.00  1.00  0.00  0.00  0.00  0.91  0.00
  B                       1.00   0.00  0.00  0.00  1.00  0.00  0.00  0.00  0.94  0.00
  C                       1.00   0.00  0.00  0.00  1.00  0.00  0.00  0.00  0.00  0.00
  D                       1.00   0.00  0.00  0.00  1.00  0.00  0.00  0.00  0.73  0.00
  F                       1.00   0.00  0.00  0.00  1.00  0.00  0.00  0.00  0.00  0.00
  
  
  *************************
  Conduit Surcharge Summary
  *************************
  
  ----------------------------------------------------------------------------
                                                           Hours        Hours 
                         --------- Hours Full --------   Above Full   Capacity
  Conduit                Both Ends  Upstream  Dnstream   Normal Flow   Limited
  ----------------------------------------------------------------------------
  A                           1.72      1.76      1.82      1.72         1.69
  B                           1.59      1.59      1.76      0.02         0.03
  C                           1.51      2.06      1.51      1.93         1.51
  D                           1.46      1.51      1.59      1.45         1.41
  F                           0.01      1.82      0.01      1.82         0.01
  

  Analysis begun on:  Wed Jun 24 16:59:13 2026
  Analysis ended on:  Wed Jun 24 16:59:13 2026
  Total elapsed time: < 1 sec