
  EPA STORM WATER MANAGEMENT MODEL - VERSION 5.2 (Build 5.2.4)
  ------------------------------------------------------------

  
  ERROR 235: invalid infiltration parameters at line 90 of [INFIL] section:
  S3               3.5        0.5        25        


  Analysis begun on:  Wed Jun 24 17:00:06 2026
  Analysis ended on:  Wed Jun 24 17:00:06 2026
  Total elapsed time: < 1 sec