
  EPA STORM WATER MANAGEMENT MODEL - VERSION 5.2 (Build 5.2.4)
  ------------------------------------------------------------

  WARNING 04: minimum elevation drop used for Conduit 15
  
  ****************
  Analysis Options
  ****************
  Flow Units ............... CFS
  Process Models:
    Rainfall/Runoff ........ YES
    RDII ................... NO
    Snowmelt ............... NO
    Groundwater ............ NO
    Flow Routing ........... YES
    Ponding Allowed ........ NO
    Water Quality .......... NO
  Infiltration Method ...... GREEN_AMPT
  Flow Routing Method ...... DYNWAVE
  Surcharge Method ......... EXTRAN
  Starting Date ............ 01/01/1984 12:00:00
  Ending Date .............. 08/31/1984 04:00:00
  Antecedent Dry Days ...... 0.0
  Report Time Step ......... 00:05:00
  Wet Time Step ............ 00:05:00
  Dry Time Step ............ 00:05:00
  Routing Time Step ........ 300.00 sec
  Variable Time Step ....... YES
  Maximum Trials ........... 8
  Number of Threads ........ 1
  Head Tolerance ........... 0.005000 ft
  
  
  **************************        Volume         Depth
  Runoff Quantity Continuity     acre-feet        inches
  **************************     ---------       -------
  Total Precipitation ......      4883.073        36.696
  Evaporation Loss .........      1686.423        12.673
  Infiltration Loss ........      2216.350        16.656
  Surface Runoff ...........       994.910         7.477
  Final Storage ............         0.000         0.000
  Continuity Error (%) .....        -0.299
  
  
  **************************        Volume        Volume
  Flow Routing Continuity        acre-feet      10^6 gal
  **************************     ---------     ---------
  Dry Weather Inflow .......         0.000         0.000
  Wet Weather Inflow .......       995.807       324.499
  Groundwater Inflow .......         0.000         0.000
  RDII Inflow ..............         0.000         0.000
  External Inflow ..........         0.000         0.000
  External Outflow .........       967.989       315.434
  Flooding Loss ............         5.626         1.833
  Evaporation Loss .........        33.955        11.065
  Exfiltration Loss ........         0.000         0.000
  Initial Stored Volume ....         0.000         0.000
  Final Stored Volume ......         0.005         0.002
  Continuity Error (%) .....        -1.182
  
  
  *************************
  Highest Continuity Errors
  *************************
  Node 6 (-2.78%)
  Node 7 (-1.24%)
  
  
  ***************************
  Time-Step Critical Elements
  ***************************
  Link R110 (8.66%)
  Link R1670 (2.48%)
  Link R2040 (1.01%)
  
  
  ********************************
  Highest Flow Instability Indexes
  ********************************
  Link R1670 (12)
  Link R2040 (9)
  Link R120 (8)
  
  
  *********************************
  Most Frequent Nonconverging Nodes
  *********************************
  Node 11 (0.03%)
  Node 5 (0.02%)
  Node 2 (0.02%)
  Node 4 (0.02%)
  Node 7 (0.01%)
  
  
  *************************
  Routing Time Step Summary
  *************************
  Minimum Time Step           :     6.50 sec
  Average Time Step           :   283.39 sec
  Maximum Time Step           :   300.00 sec
  % of Time in Steady State   :     0.00
  Average Iterations per Step :     2.05
  % of Steps Not Converging   :     0.03
  Time Step Frequencies       :
     300.000 - 83.462 sec      :    99.52 %
     83.462 - 23.220 sec      :     0.48 %
     23.220 -  6.460 sec      :     0.00 %
      6.460 -  1.797 sec      :     0.00 %
      1.797 -  0.500 sec      :     0.00 %
  
  
  ***************************
  Subcatchment Runoff Summary
  ***************************
  
  ------------------------------------------------------------------------------------------------------------------------------
                            Total      Total      Total      Total     Imperv       Perv      Total       Total     Peak  Runoff
                           Precip      Runon       Evap      Infil     Runoff     Runoff     Runoff      Runoff   Runoff   Coeff
  Subcatchment                 in         in         in         in         in         in         in    10^6 gal      CFS
  ------------------------------------------------------------------------------------------------------------------------------
  J                         36.70       0.00      12.54      17.37       4.17       2.73       6.90       28.75   221.74   0.188
  I                         36.70       0.00      13.80      15.01       5.81       2.18       7.99       51.37   373.68   0.218
  E                         36.70       0.00      10.05      15.50       5.49       5.86      11.35        3.08    25.74   0.309
  D                         36.70       0.00      12.11      18.47       4.53       1.71       6.24       43.39   321.73   0.170
  H                         36.70       0.00      11.75      18.11       5.07       1.87       6.94       32.27   248.69   0.189
  G                         36.70       0.00      11.40      18.38       5.52       1.51       7.03       21.82   169.77   0.192
  F                         36.70       0.00      12.05      18.31       5.08       1.34       6.41       30.02   221.27   0.175
  C                         36.70       0.00      12.55      16.63       5.69       1.94       7.62       32.66   246.52   0.208
  B                         36.70       0.00      12.65      16.50       5.55       2.12       7.67       32.69   247.39   0.209
  A                         36.70       0.00      14.81      11.43       8.54       2.02      10.56       48.13   353.51   0.288
  
  
  ******************
  Node Depth Summary
  ******************
  
  ---------------------------------------------------------------------------------
                                 Average  Maximum  Maximum  Time of Max    Reported
                                   Depth    Depth      HGL   Occurrence   Max Depth
  Node                 Type         Feet     Feet     Feet  days hr:min        Feet
  ---------------------------------------------------------------------------------
  1                    JUNCTION     0.03     3.44  1305.44   163  13:01        3.42
  2                    JUNCTION     0.20    11.44  1237.44   163  13:45       11.44
  3                    JUNCTION     0.01     1.49  1277.49   163  13:01        1.48
  4                    JUNCTION     0.03     2.98  1254.98   163  13:03        2.97
  5                    JUNCTION     0.06     5.58  1239.58   163  13:09        5.57
  6                    JUNCTION     0.04     3.64  1263.64   163  13:05        3.64
  7                    JUNCTION     0.07     5.44  1245.44   163  13:13        5.43
  8                    JUNCTION     0.00     0.00  1260.00    11  06:39        0.00
  11                   OUTFALL      0.07     5.14  1215.14   163  13:24        5.14
  DetPond              STORAGE      0.02     0.91  1265.91   163  22:20        0.91
  
  
  *******************
  Node Inflow Summary
  *******************
  
  -------------------------------------------------------------------------------------------------
                                  Maximum  Maximum                  Lateral       Total        Flow
                                  Lateral    Total  Time of Max      Inflow      Inflow     Balance
                                   Inflow   Inflow   Occurrence      Volume      Volume       Error
  Node                 Type           CFS      CFS  days hr:min    10^6 gal    10^6 gal     Percent
  -------------------------------------------------------------------------------------------------
  1                    JUNCTION    221.74   221.74   163  13:01        28.8        28.8      -0.530
  2                    JUNCTION    169.77  1497.98   163  13:09        21.8         290       0.610
  3                    JUNCTION    353.51   353.51   163  13:01        48.2        48.2      -0.831
  4                    JUNCTION    247.39   591.94   163  13:01        32.7        80.5      -0.446
  5                    JUNCTION    246.52   787.07   163  13:01        32.7         112      -0.414
  6                    JUNCTION    373.68   586.49   163  13:01        51.4        81.3      -2.704
  7                    JUNCTION    570.43  1043.79   163  13:01        75.7         157      -1.225
  8                    JUNCTION      0.00     0.92   163  22:20           0        3.06       0.001
  11                   OUTFALL     221.27   949.22   163  13:22        30.1         315       0.000
  DetPond              STORAGE      25.74    25.74   163  13:01        3.06        3.06       0.045
  
  
  **********************
  Node Surcharge Summary
  **********************
  
  No nodes were surcharged.
  
  
  *********************
  Node Flooding Summary
  *********************
  
  Flooding refers to all water that overflows a node, whether it ponds or not.
  --------------------------------------------------------------------------
                                                             Total   Maximum
                                 Maximum   Time of Max       Flood    Ponded
                        Hours       Rate    Occurrence      Volume     Depth
  Node                 Flooded       CFS   days hr:min    10^6 gal      Feet
  --------------------------------------------------------------------------
  8                    4330.36      0.55    163  22:20       1.831     0.000
  
  
  **********************
  Storage Volume Summary
  **********************
  
  ------------------------------------------------------------------------------------------------
                         Average    Avg   Evap  Exfil     Maximum    Max    Time of Max    Maximum
                          Volume   Pcnt   Pcnt   Pcnt      Volume   Pcnt     Occurrence    Outflow
  Storage Unit          1000 ftł   Full   Loss   Loss    1000 ftł   Full    days hr:min        CFS
  ------------------------------------------------------------------------------------------------
  DetPond                  2.178    0.1    0.0    0.0     105.855    5.0     163  22:20       0.92
  
  
  ***********************
  Outfall Loading Summary
  ***********************
  
  -----------------------------------------------------------
                         Flow       Avg       Max       Total
                         Freq      Flow      Flow      Volume
  Outfall Node           Pcnt       CFS       CFS    10^6 gal
  -----------------------------------------------------------
  11                    34.21     12.85    949.22     315.410
  -----------------------------------------------------------
  System                34.21     12.85    949.22     315.410
  
  
  ********************
  Link Flow Summary
  ********************
  
  -----------------------------------------------------------------------------
                                 Maximum  Time of Max   Maximum    Max/    Max/
                                  |Flow|   Occurrence   |Veloc|    Full    Full
  Link                 Type          CFS  days hr:min    ft/sec    Flow   Depth
  -----------------------------------------------------------------------------
  R120                 CHANNEL    878.28   163  13:24     15.07    0.03    0.41
  R1670                CHANNEL    736.35   163  13:13     36.80    0.10    0.77
  R560                 CHANNEL    344.55   163  13:01      3.05    0.00    0.14
  R570                 CHANNEL    550.36   163  13:05     15.00    0.03    0.43
  R110                 CHANNEL    675.17   163  13:09     19.88    0.02    0.50
  R2040                CHANNEL    490.74   163  13:05      6.31    0.02    0.32
  R160                 CHANNEL    213.45   163  13:03      5.66    0.01    0.20
  15                   DUMMY        0.39   163  21:10
  2                    ORIFICE      0.92   163  22:20                          
  
  
  ***************************
  Flow Classification Summary
  ***************************
  
  -------------------------------------------------------------------------------------
                      Adjusted    ---------- Fraction of Time in Flow Class ---------- 
                       /Actual         Up    Down  Sub   Sup   Up    Down  Norm  Inlet 
  Conduit               Length    Dry  Dry   Dry   Crit  Crit  Crit  Crit  Ltd   Ctrl  
  -------------------------------------------------------------------------------------
  R120                    1.00   0.51  0.08  0.00  0.40  0.02  0.00  0.00  0.02  0.00
  R1670                   1.00   0.24  0.03  0.00  0.71  0.03  0.00  0.00  0.40  0.00
  R560                    1.00   0.62  0.10  0.00  0.27  0.00  0.00  0.00  0.63  0.00
  R570                    1.00   0.60  0.03  0.00  0.37  0.00  0.00  0.00  0.50  0.00
  R110                    1.00   0.56  0.06  0.00  0.38  0.00  0.00  0.00  0.64  0.00
  R2040                   1.00   0.16  0.35  0.00  0.47  0.02  0.00  0.00  0.16  0.00
  R160                    1.00   0.49  0.19  0.00  0.32  0.00  0.00  0.00  0.21  0.00
  
  
  *************************
  Conduit Surcharge Summary
  *************************
  
  ----------------------------------------------------------------------------
                                                           Hours        Hours 
                         --------- Hours Full --------   Above Full   Capacity
  Conduit                Both Ends  Upstream  Dnstream   Normal Flow   Limited
  ----------------------------------------------------------------------------
  R1670                       0.01      0.01      1.38      0.01         0.01
  

  Analysis begun on:  Wed Jun 24 16:59:14 2026
  Analysis ended on:  Wed Jun 24 16:59:15 2026
  Total elapsed time: 00:00:01