
  EPA STORM WATER MANAGEMENT MODEL - VERSION 5.2 (Build 5.2.4)
  ------------------------------------------------------------

  
  ****************
  Analysis Options
  ****************
  Flow Units ............... GPM
  Process Models:
    Rainfall/Runoff ........ YES
    RDII ................... NO
    Snowmelt ............... NO
    Groundwater ............ NO
    Flow Routing ........... YES
    Ponding Allowed ........ NO
    Water Quality .......... NO
  Infiltration Method ...... CURVE_NUMBER
  Flow Routing Method ...... DYNWAVE
  Surcharge Method ......... EXTRAN
  Starting Date ............ 06/16/2010 00:00:00
  Ending Date .............. 06/17/2010 00:00:00
  Antecedent Dry Days ...... 0.0
  Report Time Step ......... 00:05:00
  Wet Time Step ............ 00:05:00
  Dry Time Step ............ 01:00:00
  Routing Time Step ........ 30.00 sec
  Variable Time Step ....... YES
  Maximum Trials ........... 8
  Number of Threads ........ 1
  Head Tolerance ........... 0.005000 ft
  
  
  **************************        Volume         Depth
  Runoff Quantity Continuity     acre-feet        inches
  **************************     ---------       -------
  Total Precipitation ......         2.248        18.990
  Evaporation Loss .........         0.000         0.000
  Infiltration Loss ........         0.000         0.000
  Surface Runoff ...........         2.252        19.025
  Final Storage ............         0.002         0.015
  Continuity Error (%) .....        -0.264
  
  
  **************************        Volume        Volume
  Flow Routing Continuity        acre-feet      10^6 gal
  **************************     ---------     ---------
  Dry Weather Inflow .......         0.494         0.161
  Wet Weather Inflow .......         2.250         0.733
  Groundwater Inflow .......         0.000         0.000
  RDII Inflow ..............         0.000         0.000
  External Inflow ..........         0.000         0.000
  External Outflow .........         1.801         0.587
  Flooding Loss ............         0.946         0.308
  Evaporation Loss .........         0.000         0.000
  Exfiltration Loss ........         0.000         0.000
  Initial Stored Volume ....         0.000         0.000
  Final Stored Volume ......         0.002         0.001
  Continuity Error (%) .....        -0.178
  
  
  ***************************
  Time-Step Critical Elements
  ***************************
  Link C04 (99.78%)
  
  
  ********************************
  Highest Flow Instability Indexes
  ********************************
  Link C04 (5)
  Link C08 (4)
  Link C011 (4)
  Link C07 (2)
  Link C06 (2)
  
  
  *********************************
  Most Frequent Nonconverging Nodes
  *********************************
  Node J01 (6.86%)
  Node J017 (1.95%)
  Node J019 (1.92%)
  Node J018 (1.91%)
  Node J020 (1.39%)
  
  
  *************************
  Routing Time Step Summary
  *************************
  Minimum Time Step           :     0.56 sec
  Average Time Step           :     2.14 sec
  Maximum Time Step           :    30.00 sec
  % of Time in Steady State   :     0.00
  Average Iterations per Step :     2.70
  % of Steps Not Converging   :     6.86
  Time Step Frequencies       :
     30.000 - 13.228 sec      :     0.08 %
     13.228 -  5.833 sec      :     0.12 %
      5.833 -  2.572 sec      :    25.12 %
      2.572 -  1.134 sec      :    56.44 %
      1.134 -  0.500 sec      :    18.24 %
  
  
  ***************************
  Subcatchment Runoff Summary
  ***************************
  
  ------------------------------------------------------------------------------------------------------------------------------
                            Total      Total      Total      Total     Imperv       Perv      Total       Total     Peak  Runoff
                           Precip      Runon       Evap      Infil     Runoff     Runoff     Runoff      Runoff   Runoff   Coeff
  Subcatchment                 in         in         in         in         in         in         in    10^6 gal      GPM
  ------------------------------------------------------------------------------------------------------------------------------
  RDP6                      18.99       0.00       0.00       0.00      19.00       0.00      19.00        0.25  1850.61   1.001
  RDP5                      18.99       0.00       0.00       0.00      19.04       0.00      19.04        0.01    82.41   1.002
  RDP4                      18.99       0.00       0.00       0.00      19.05       0.00      19.05        0.17  1213.60   1.003
  RDP3C                     18.99       0.00       0.00       0.00      19.02       0.00      19.02        0.02   116.83   1.002
  RDP3B                     18.99       0.00       0.00       0.00      19.05       0.00      19.05        0.01    71.58   1.003
  RDP3A                     18.99       0.00       0.00       0.00      19.03       0.00      19.03        0.02   137.38   1.002
  RDP2A                     18.99       0.00       0.00       0.00      19.03       0.00      19.03        0.03   197.25   1.002
  RDP2                      18.99       0.00       0.00       0.00      19.04       0.00      19.04        0.17  1262.64   1.003
  RDP3                      18.99       0.00       0.00       0.00      19.00       0.00      19.00        0.04   319.68   1.000
  RDP1                      18.99       0.00       0.00       0.00      19.04       0.00      19.04        0.01    70.97   1.002
  
  
  ******************
  Node Depth Summary
  ******************
  
  ---------------------------------------------------------------------------------
                                 Average  Maximum  Maximum  Time of Max    Reported
                                   Depth    Depth      HGL   Occurrence   Max Depth
  Node                 Type         Feet     Feet     Feet  days hr:min        Feet
  ---------------------------------------------------------------------------------
  J04                  JUNCTION     0.33     0.83   606.27     0  15:11        0.83
  J05                  JUNCTION     0.71     4.05   611.40     0  00:25        2.24
  J06                  JUNCTION     0.97     4.51   612.90     0  00:25        3.27
  J07                  JUNCTION     0.94     4.76   615.00     0  00:25        3.39
  J08                  JUNCTION     0.95     5.74   617.30     0  00:25        3.46
  J09                  JUNCTION     0.99     4.63   620.21     0  15:00        3.71
  J010                 JUNCTION     1.02     3.84   621.90     0  00:25        3.84
  J011                 JUNCTION     0.96     4.18   623.70     0  00:24        3.71
  J012                 JUNCTION     1.01     5.16   628.37     0  16:47        3.79
  J013                 JUNCTION     0.82     4.43   630.31     0  03:18        3.04
  J014                 JUNCTION     0.85     3.05   630.40     0  00:22        3.05
  J015                 JUNCTION     1.09     7.10   638.48     0  14:57        4.40
  J016                 JUNCTION     0.82     3.36   638.24     0  00:24        3.36
  J03                  JUNCTION     0.52     1.37   606.06     0  16:56        1.34
  J02                  JUNCTION     0.38     0.83   604.40     0  15:11        0.83
  J017                 JUNCTION     1.34     6.75   644.33     0  00:27        6.72
  J018                 JUNCTION     1.20     6.82   648.62     0  20:41        6.79
  J019                 JUNCTION     1.04     6.18   650.33     0  18:17        6.15
  J020                 JUNCTION     0.94     5.73   653.24     0  16:51        5.56
  J021                 JUNCTION     1.00     5.81   654.54     0  00:27        5.81
  J022                 JUNCTION     0.73     5.19   659.23     0  15:01        4.65
  J023                 JUNCTION     0.74     4.78   662.13     0  00:27        4.78
  J024                 JUNCTION     0.24     2.83   667.57     0  16:56        1.30
  J025                 JUNCTION     0.26     3.13   668.82     0  16:56        1.25
  J026                 JUNCTION     0.31     3.99   670.70     0  16:56        2.50
  J027                 JUNCTION     0.28     4.54   673.16     0  16:56        3.96
  J028                 JUNCTION     0.29     4.97   674.99     0  16:56        4.40
  J01                  OUTFALL      0.39     0.85   603.15     0  15:12        0.85
  
  
  *******************
  Node Inflow Summary
  *******************
  
  -------------------------------------------------------------------------------------------------
                                  Maximum  Maximum                  Lateral       Total        Flow
                                  Lateral    Total  Time of Max      Inflow      Inflow     Balance
                                   Inflow   Inflow   Occurrence      Volume      Volume       Error
  Node                 Type           GPM      GPM  days hr:min    10^6 gal    10^6 gal     Percent
  -------------------------------------------------------------------------------------------------
  J04                  JUNCTION      0.00  1792.66     0  16:56           0       0.587       0.004
  J05                  JUNCTION      0.00  1792.67     0  16:56           0       0.587      -0.030
  J06                  JUNCTION      0.00  1793.16     0  16:56           0       0.587       0.012
  J07                  JUNCTION      0.92  1799.66     0  00:25    0.000499       0.587      -0.010
  J08                  JUNCTION      0.00  1957.77     0  16:49           0       0.586      -0.073
  J09                  JUNCTION      2.72  2034.82     0  16:48     0.00148       0.586       0.018
  J010                 JUNCTION      0.00  2020.20     0  16:48           0       0.586       0.028
  J011                 JUNCTION     77.52  2133.24     0  16:48      0.0133       0.586      -0.077
  J012                 JUNCTION      2.10  2162.91     0  00:23     0.00114       0.573       0.060
  J013                 JUNCTION      0.00  2245.66     0  00:23           0       0.571      -0.029
  J014                 JUNCTION   1282.81  3118.49     0  16:55       0.185       0.709      -0.005
  J015                 JUNCTION      0.00  1879.16     0  16:47           0       0.524      -0.001
  J016                 JUNCTION    374.96  2764.77     0  16:55      0.0741       0.614      -0.094
  J03                  JUNCTION      0.00  1794.59     0  16:56           0       0.587       0.003
  J02                  JUNCTION      0.00  1792.39     0  15:11           0       0.587       0.004
  J017                 JUNCTION      0.00  2389.85     0  15:05           0        0.54       0.094
  J018                 JUNCTION    200.66  2389.85     0  15:05       0.029        0.54      -0.009
  J019                 JUNCTION    150.48  2234.28     0  15:13      0.0261       0.511      -0.015
  J020                 JUNCTION      0.00  2166.35     0  15:13           0       0.485      -0.008
  J021                 JUNCTION     76.55  2482.90     0  15:05      0.0126       0.518       0.022
  J022                 JUNCTION      0.00  2406.34     0  15:06           0       0.505      -0.026
  J023                 JUNCTION   1263.38  3418.13     0  16:56       0.194       0.551      -0.001
  J024                 JUNCTION    124.95  2176.73     0  16:56      0.0205       0.356      -0.007
  J025                 JUNCTION      0.00  2100.27     0  16:55           0       0.336      -0.001
  J026                 JUNCTION      0.00  2092.65     0  16:55           0       0.336      -0.020
  J027                 JUNCTION      0.00  2077.54     0  16:55           0       0.336      -0.030
  J028                 JUNCTION   2061.40  2061.40     0  15:05       0.336       0.336       0.009
  J01                  OUTFALL       0.00  1792.38     0  15:12           0       0.587       0.000
  
  
  **********************
  Node Surcharge Summary
  **********************
  
  Surcharging occurs when water rises above the top of the highest conduit.
  ---------------------------------------------------------------------
                                               Max. Height   Min. Depth
                                   Hours       Above Crown    Below Rim
  Node                 Type      Surcharged           Feet         Feet
  ---------------------------------------------------------------------
  J05                  JUNCTION        3.39          3.050        0.000
  J06                  JUNCTION        3.57          3.510        0.000
  J07                  JUNCTION        3.32          3.760        0.000
  J08                  JUNCTION        3.16          4.740        0.000
  J09                  JUNCTION        3.10          3.630        0.990
  J010                 JUNCTION        3.16          2.840        0.000
  J011                 JUNCTION        3.01          3.180        0.000
  J012                 JUNCTION        3.07          4.160        0.000
  J013                 JUNCTION        2.95          3.429        2.191
  J014                 JUNCTION        2.96          2.050        0.000
  J015                 JUNCTION        2.74          6.099        2.161
  J016                 JUNCTION        2.52          2.360        0.000
  J03                  JUNCTION        3.04          0.372        5.038
  J017                 JUNCTION        2.53          5.750        0.000
  J018                 JUNCTION        2.30          5.825        0.725
  J019                 JUNCTION        2.11          5.183        3.107
  J020                 JUNCTION        1.94          4.728        2.642
  J021                 JUNCTION        1.88          4.810        0.000
  J022                 JUNCTION        1.64          4.187        0.613
  J023                 JUNCTION        1.45          3.780        0.000
  J024                 JUNCTION        0.20          1.830        3.740
  J025                 JUNCTION        0.14          2.126        4.164
  J026                 JUNCTION        0.86          2.992        4.808
  J027                 JUNCTION        0.64          3.543        4.317
  J028                 JUNCTION        0.53          3.970        2.880
  
  
  *********************
  Node Flooding Summary
  *********************
  
  Flooding refers to all water that overflows a node, whether it ponds or not.
  --------------------------------------------------------------------------
                                                             Total   Maximum
                                 Maximum   Time of Max       Flood    Ponded
                        Hours       Rate    Occurrence      Volume     Depth
  Node                 Flooded       GPM   days hr:min    10^6 gal      Feet
  --------------------------------------------------------------------------
  J05                     0.01    169.58      0  00:25       0.000     0.000
  J06                     0.01     81.12      0  00:25       0.000     0.000
  J07                     0.01    102.10      0  10:15       0.000     0.000
  J08                     0.01    279.57      0  16:49       0.000     0.000
  J010                    1.47    126.01      0  16:49       0.001     0.000
  J011                    0.01    163.97      0  00:24       0.000     0.000
  J012                    0.01    175.45      0  16:47       0.000     0.000
  J014                    2.54   1386.58      0  16:55       0.137     0.000
  J016                    2.32    929.02      0  16:55       0.091     0.000
  J017                    0.01     10.30      0  15:00       0.000     0.000
  J021                    1.43    444.71      0  16:55       0.033     0.000
  J023                    1.34   1011.49      0  16:56       0.045     0.000
  
  
  ***********************
  Outfall Loading Summary
  ***********************
  
  -----------------------------------------------------------
                         Flow       Avg       Max       Total
                         Freq      Flow      Flow      Volume
  Outfall Node           Pcnt       GPM       GPM    10^6 gal
  -----------------------------------------------------------
  J01                   99.76    650.69   1792.38       0.587
  -----------------------------------------------------------
  System                99.76    650.69   1792.38       0.587
  
  
  ********************
  Link Flow Summary
  ********************
  
  -----------------------------------------------------------------------------
                                 Maximum  Time of Max   Maximum    Max/    Max/
                                  |Flow|   Occurrence   |Veloc|    Full    Full
  Link                 Type          GPM  days hr:min    ft/sec    Flow   Depth
  -----------------------------------------------------------------------------
  C016                 CONDUIT   1879.16     0  16:47      6.29    0.84    1.00
  C015                 CONDUIT   1835.84     0  16:49      5.21    1.15    1.00
  C014                 CONDUIT   2245.66     0  00:23      6.54    1.27    1.00
  C013                 CONDUIT   2162.82     0  00:23      6.29    1.06    1.00
  C012                 CONDUIT   2086.51     0  16:48      6.00    1.21    1.00
  C011                 CONDUIT   2020.20     0  16:48      5.87    1.03    1.00
  C010                 CONDUIT   2032.09     0  16:48      5.94    1.16    1.00
  C09                  CONDUIT   1957.77     0  16:49      5.69    1.13    1.00
  C08                  CONDUIT   1799.61     0  00:25      5.65    1.05    1.00
  C07                  CONDUIT   1793.16     0  16:56      5.09    1.02    1.00
  C06                  CONDUIT   1792.67     0  16:56      5.09    1.41    1.00
  C05                  CONDUIT   1792.66     0  16:56      6.01    1.26    0.92
  C04                  CONDUIT   1794.59     0  16:56      6.08    0.54    0.92
  C03                  CONDUIT   1792.39     0  15:11      5.31    1.21    0.91
  C02                  CONDUIT   1792.38     0  15:12      5.76    1.01    0.84
  C028                 CONDUIT   2077.54     0  16:55      5.97    1.15    1.00
  C027                 CONDUIT   2092.65     0  16:55      5.94    1.12    1.00
  C026                 CONDUIT   2100.27     0  16:55      6.25    1.32    1.00
  C025                 CONDUIT   2054.54     0  16:56      6.69    1.07    1.00
  C024                 CONDUIT   2183.42     0  16:56      6.19    0.80    1.00
  C023                 CONDUIT   2406.34     0  15:06      7.94    1.02    1.00
  C022                 CONDUIT   2406.34     0  15:06      6.91    0.88    1.00
  C021                 CONDUIT   2166.35     0  15:13      6.55    1.17    1.00
  C020                 CONDUIT   2165.98     0  15:13      7.35    0.97    1.00
  C019                 CONDUIT   2234.45     0  15:13      7.55    0.87    1.00
  C018                 CONDUIT   2389.85     0  15:05      6.78    1.01    1.00
  C017                 CONDUIT   2389.97     0  16:55      6.78    1.50    1.00
  
  
  ***************************
  Flow Classification Summary
  ***************************
  
  -------------------------------------------------------------------------------------
                      Adjusted    ---------- Fraction of Time in Flow Class ---------- 
                       /Actual         Up    Down  Sub   Sup   Up    Down  Norm  Inlet 
  Conduit               Length    Dry  Dry   Dry   Crit  Crit  Crit  Crit  Ltd   Ctrl  
  -------------------------------------------------------------------------------------
  C016                    1.00   0.00  0.00  0.00  0.12  0.88  0.00  0.00  0.83  0.00
  C015                    1.00   0.00  0.00  0.00  0.17  0.83  0.00  0.00  0.64  0.00
  C014                    1.00   0.00  0.00  0.00  0.13  0.87  0.00  0.00  0.02  0.00
  C013                    1.00   0.00  0.00  0.00  0.13  0.86  0.00  0.00  0.80  0.00
  C012                    1.00   0.00  0.00  0.00  0.14  0.86  0.00  0.00  0.06  0.00
  C011                    1.00   0.00  0.00  0.00  0.14  0.86  0.00  0.00  0.73  0.00
  C010                    1.00   0.00  0.00  0.00  0.15  0.85  0.00  0.00  0.34  0.00
  C09                     1.00   0.00  0.00  0.00  0.15  0.85  0.00  0.00  0.67  0.00
  C08                     1.00   0.00  0.00  0.00  0.15  0.85  0.00  0.00  0.21  0.00
  C07                     1.00   0.00  0.00  0.00  0.17  0.83  0.00  0.00  0.80  0.00
  C06                     1.00   0.00  0.00  0.00  0.34  0.66  0.00  0.00  0.26  0.00
  C05                     1.00   0.00  0.00  0.00  0.14  0.86  0.00  0.00  0.00  0.00
  C04                     1.00   0.01  0.00  0.00  0.13  0.86  0.00  0.00  0.79  0.00
  C03                     1.00   0.01  0.00  0.00  0.14  0.85  0.00  0.00  0.03  0.00
  C02                     1.00   0.01  0.00  0.00  0.00  0.99  0.00  0.00  0.32  0.00
  C028                    1.00   0.00  0.00  0.00  0.03  0.97  0.00  0.00  0.15  0.00
  C027                    1.00   0.00  0.00  0.00  0.04  0.96  0.00  0.00  0.89  0.00
  C026                    1.00   0.00  0.00  0.00  0.04  0.96  0.00  0.00  0.07  0.00
  C025                    1.00   0.00  0.00  0.00  0.01  0.99  0.00  0.00  0.04  0.00
  C024                    1.00   0.00  0.00  0.00  0.07  0.93  0.00  0.00  0.94  0.00
  C023                    1.00   0.00  0.00  0.00  0.07  0.93  0.00  0.00  0.07  0.00
  C022                    1.00   0.00  0.00  0.00  0.08  0.92  0.00  0.00  0.92  0.00
  C021                    1.00   0.00  0.00  0.00  0.09  0.91  0.00  0.00  0.06  0.00
  C020                    1.00   0.00  0.00  0.00  0.09  0.91  0.00  0.00  0.08  0.00
  C019                    1.00   0.00  0.00  0.00  0.10  0.90  0.00  0.00  0.86  0.00
  C018                    1.00   0.00  0.00  0.00  0.11  0.89  0.00  0.00  0.89  0.00
  C017                    1.00   0.00  0.00  0.00  0.12  0.88  0.00  0.00  0.06  0.00
  
  
  *************************
  Conduit Surcharge Summary
  *************************
  
  ----------------------------------------------------------------------------
                                                           Hours        Hours 
                         --------- Hours Full --------   Above Full   Capacity
  Conduit                Both Ends  Upstream  Dnstream   Normal Flow   Limited
  ----------------------------------------------------------------------------
  C016                        2.52      2.52      2.74      0.01         0.01
  C015                        2.74      2.74      2.96      2.71         2.64
  C014                        2.84      2.96      2.95      0.53         2.62
  C013                        2.95      2.95      3.07      0.14         0.12
  C012                        2.93      3.07      3.01      2.82         2.58
  C011                        3.01      3.01      3.16      0.17         0.18
  C010                        3.01      3.16      3.10      2.56         2.44
  C09                         3.04      3.10      3.16      2.61         2.39
  C08                         3.16      3.16      3.32      2.50         2.41
  C07                         3.32      3.32      3.57      2.23         2.41
  C06                         3.39      3.57      3.39      3.70         3.39
  C05                         0.01      3.39      0.01      3.58         0.01
  C04                         0.01      0.01      3.04      0.01         0.01
  C03                         0.01      3.04      0.01      3.35         0.01
  C02                         0.01      0.01      0.01      1.51         0.01
  C028                        0.52      0.53      0.63      0.80         0.48
  C027                        0.63      0.63      0.86      0.32         0.29
  C026                        0.14      0.86      0.14      1.17         0.14
  C025                        0.14      0.14      0.20      0.15         0.09
  C024                        0.20      0.20      1.45      0.01         0.01
  C023                        1.45      1.45      1.64      1.34         1.36
  C022                        1.64      1.64      1.88      0.01         0.01
  C021                        1.88      1.88      1.94      2.15         1.86
  C020                        1.94      1.94      2.11      0.01         0.01
  C019                        2.11      2.11      2.30      0.01         0.01
  C018                        2.30      2.30      2.53      0.91         0.92
  C017                        2.45      2.53      2.52      2.68         2.42
  

  Analysis begun on:  Wed Jun 24 16:59:13 2026
  Analysis ended on:  Wed Jun 24 16:59:14 2026
  Total elapsed time: 00:00:01