
  EPA STORM WATER MANAGEMENT MODEL - VERSION 5.2 (Build 5.2.4)
  ------------------------------------------------------------

  WARNING 04: minimum elevation drop used for Conduit 11
  WARNING 04: minimum elevation drop used for Conduit 13
  WARNING 04: minimum elevation drop used for Conduit 17
  WARNING 04: minimum elevation drop used for Conduit 19
  WARNING 04: minimum elevation drop used for Conduit 21
  WARNING 04: minimum elevation drop used for Conduit 23
  WARNING 04: minimum elevation drop used for Conduit 43
  WARNING 04: minimum elevation drop used for Conduit 47
  WARNING 04: minimum elevation drop used for Conduit 49
  WARNING 04: minimum elevation drop used for Conduit 51
  WARNING 04: minimum elevation drop used for Conduit 53
  WARNING 04: minimum elevation drop used for Conduit 55
  WARNING 04: minimum elevation drop used for Conduit 59
  WARNING 02: maximum depth increased for Node 22
  WARNING 02: maximum depth increased for Node 30
  
  ****************
  Analysis Options
  ****************
  Flow Units ............... CFS
  Process Models:
    Rainfall/Runoff ........ NO
    RDII ................... NO
    Snowmelt ............... NO
    Groundwater ............ NO
    Flow Routing ........... YES
    Ponding Allowed ........ NO
    Water Quality .......... NO
  Flow Routing Method ...... DYNWAVE
  Surcharge Method ......... EXTRAN
  Starting Date ............ 01/01/2002 00:00:00
  Ending Date .............. 01/01/2002 04:00:00
  Antecedent Dry Days ...... 5.0
  Report Time Step ......... 00:05:00
  Routing Time Step ........ 10.00 sec
  Variable Time Step ....... YES
  Maximum Trials ........... 8
  Number of Threads ........ 1
  Head Tolerance ........... 0.005000 ft
  
  
  **************************        Volume        Volume
  Flow Routing Continuity        acre-feet      10^6 gal
  **************************     ---------     ---------
  Dry Weather Inflow .......        34.740        11.320
  Wet Weather Inflow .......         0.000         0.000
  Groundwater Inflow .......         0.000         0.000
  RDII Inflow ..............         0.000         0.000
  External Inflow ..........         0.110         0.036
  External Outflow .........         0.030         0.010
  Flooding Loss ............        34.348        11.193
  Evaporation Loss .........         0.000         0.000
  Exfiltration Loss ........         0.000         0.000
  Initial Stored Volume ....         0.012         0.004
  Final Stored Volume ......         0.669         0.218
  Continuity Error (%) .....        -0.529
  
  
  *************************
  Highest Continuity Errors
  *************************
  Node 40 (-121.33%)
  Node 22 (36.33%)
  Node 42 (27.32%)
  Node 44 (22.64%)
  Node 18 (16.37%)
  
  
  ***************************
  Time-Step Critical Elements
  ***************************
  Link 57 (24.74%)
  Link 23 (17.04%)
  Link 45 (11.54%)
  Node 8004 (1.75%)
  
  
  ********************************
  Highest Flow Instability Indexes
  ********************************
  Link 31 (103)
  Link 43 (91)
  Link 57 (69)
  Link 59 (68)
  Link 33 (45)
  
  
  *********************************
  Most Frequent Nonconverging Nodes
  *********************************
  Node 14 (64.97%)
  Node 52 (62.07%)
  Node 40 (37.03%)
  Node 24 (16.49%)
  Node 9000 (3.35%)
  
  
  *************************
  Routing Time Step Summary
  *************************
  Minimum Time Step           :     0.50 sec
  Average Time Step           :     7.20 sec
  Maximum Time Step           :    10.00 sec
  % of Time in Steady State   :     0.00
  Average Iterations per Step :     7.05
  % of Steps Not Converging   :    64.97
  Time Step Frequencies       :
     10.000 -  5.493 sec      :    69.05 %
      5.493 -  3.017 sec      :     2.60 %
      3.017 -  1.657 sec      :    25.70 %
      1.657 -  0.910 sec      :     1.75 %
      0.910 -  0.500 sec      :     0.90 %
  
  
  ******************
  Node Depth Summary
  ******************
  
  ---------------------------------------------------------------------------------
                                 Average  Maximum  Maximum  Time of Max    Reported
                                   Depth    Depth      HGL   Occurrence   Max Depth
  Node                 Type         Feet     Feet     Feet  days hr:min        Feet
  ---------------------------------------------------------------------------------
  10                   JUNCTION     0.89     1.03     1.03     0  01:03        1.01
  12                   JUNCTION     0.89     1.04     1.04     0  00:56        1.01
  16                   JUNCTION     0.90     1.02     1.02     0  00:57        1.01
  18                   JUNCTION     0.89     1.01     1.01     0  00:56        1.01
  20                   JUNCTION     0.89     1.04     1.04     0  02:40        1.02
  22                   JUNCTION     1.49     1.61     1.01     0  00:55        1.61
  26                   JUNCTION     2.97     3.15     1.05     0  03:09        3.14
  30                   JUNCTION     2.48     2.61     1.01     0  00:55        2.61
  36                   JUNCTION     0.15     1.01     3.01     0  03:59        0.87
  40                   JUNCTION     4.94     6.24     6.24     0  00:03        5.46
  42                   JUNCTION     0.89     1.04     1.04     0  03:13        1.02
  44                   JUNCTION     0.89     1.04     1.04     0  00:56        1.03
  46                   JUNCTION     0.89     1.05     1.05     0  00:56        1.03
  48                   JUNCTION     4.99     5.00     5.00     0  00:00        5.00
  50                   JUNCTION     5.00     5.00     5.00     0  00:00        5.00
  52                   JUNCTION     9.83    40.79    40.79     0  00:02       16.55
  14                   OUTFALL      1.00     1.00     1.00     0  00:00        1.00
  24                   DIVIDER      4.80     5.00     5.00     0  00:00        5.00
  8000                 STORAGE      9.77    10.00     5.00     0  01:04       10.00
  8002                 STORAGE      4.56     8.01     3.01     0  03:59        7.87
  8004                 STORAGE      1.71     3.72    -1.28     0  00:00        3.21
  9000                 STORAGE      9.80    10.00     5.00     0  00:05       10.00
  
  
  *******************
  Node Inflow Summary
  *******************
  
  -------------------------------------------------------------------------------------------------
                                  Maximum  Maximum                  Lateral       Total        Flow
                                  Lateral    Total  Time of Max      Inflow      Inflow     Balance
                                   Inflow   Inflow   Occurrence      Volume      Volume       Error
  Node                 Type           CFS      CFS  days hr:min    10^6 gal    10^6 gal     Percent
  -------------------------------------------------------------------------------------------------
  10                   JUNCTION      0.00     0.16     0  00:23           0     0.00462       7.540
  12                   JUNCTION      0.00     0.54     0  00:24           0     0.00911       6.242
  16                   JUNCTION      0.00     0.05     0  00:25           0     0.00539       9.171
  18                   JUNCTION      0.00     0.11     0  00:24           0     0.00573      19.570
  20                   JUNCTION      0.00     0.23     0  00:24           0     0.00524       9.182
  22                   JUNCTION      0.00     2.63     0  00:01           0      0.0456      57.065
  26                   JUNCTION      0.00     1.94     0  00:01           0     0.00584       8.571
  30                   JUNCTION      0.00     2.68     0  00:01           0      0.0208     324.563
  36                   JUNCTION      0.10     0.10     0  00:00      0.0108      0.0108       1.713
  40                   JUNCTION      0.00     1.55     0  00:00           0     0.00764     -54.819
  42                   JUNCTION      0.00     0.09     0  00:22           0     0.00174      37.596
  44                   JUNCTION      0.00     0.17     0  00:23           0     0.00221      29.261
  46                   JUNCTION      0.00     0.23     0  00:23           0     0.00289      17.748
  48                   JUNCTION      5.00    10.35     0  00:00       0.539       0.542       0.005
  50                   JUNCTION    100.00   100.00     0  00:00        10.8        10.8       0.038
  52                   JUNCTION      0.00    20.00     0  00:00           0        1.59       1.263
  14                   OUTFALL       0.00     1.86     0  00:24           0      0.0456       0.000
  24                   DIVIDER       0.00    22.13     0  01:09           0        1.61       6.089
  8000                 STORAGE       0.00     6.81     0  00:00           0      0.0212      13.851
  8002                 STORAGE       0.00     0.10     0  03:59           0      0.0112      10.756
  8004                 STORAGE       0.00    15.43     0  00:06           0        1.53      -0.670
  9000                 STORAGE       0.00     8.62     0  00:00           0      0.0266       4.353
  
  
  **********************
  Node Surcharge Summary
  **********************
  
  Surcharging occurs when water rises above the top of the highest conduit.
  ---------------------------------------------------------------------
                                               Max. Height   Min. Depth
                                   Hours       Above Crown    Below Rim
  Node                 Type      Surcharged           Feet         Feet
  ---------------------------------------------------------------------
  10                   JUNCTION        2.04          0.033        3.967
  12                   JUNCTION        1.75          0.036       10.964
  20                   JUNCTION        1.78          0.041        3.959
  26                   JUNCTION        3.98          2.148        3.952
  36                   JUNCTION        0.01          0.014        1.986
  40                   JUNCTION        3.99          5.244        0.000
  42                   JUNCTION        1.89          0.037        3.963
  44                   JUNCTION        1.72          0.039        3.961
  46                   JUNCTION        1.66          0.054        3.946
  48                   JUNCTION        4.00          4.000        0.000
  50                   JUNCTION        4.00          4.000        0.000
  52                   JUNCTION        3.99         39.787        0.000
  24                   DIVIDER         3.99          4.000        0.000
  
  
  *********************
  Node Flooding Summary
  *********************
  
  Flooding refers to all water that overflows a node, whether it ponds or not.
  --------------------------------------------------------------------------
                                                             Total   Maximum
                                 Maximum   Time of Max       Flood    Ponded
                        Hours       Rate    Occurrence      Volume     Depth
  Node                 Flooded       CFS   days hr:min    10^6 gal      Feet
  --------------------------------------------------------------------------
  48                      4.00     10.08      0  00:00       0.542     0.000
  50                      4.00     96.74      0  00:00       9.242     0.000
  24                      3.33     21.30      0  01:09       1.518     0.000
  8000                    0.02      0.26      0  03:01       0.000     0.000
  9000                    0.09      0.44      0  02:03       0.000     0.000
  
  
  **********************
  Storage Volume Summary
  **********************
  
  ------------------------------------------------------------------------------------------------
                         Average    Avg   Evap  Exfil     Maximum    Max    Time of Max    Maximum
                          Volume   Pcnt   Pcnt   Pcnt      Volume   Pcnt     Occurrence    Outflow
  Storage Unit          1000 ftł   Full   Loss   Loss    1000 ftł   Full    days hr:min        CFS
  ------------------------------------------------------------------------------------------------
  8000                     0.768   97.7    0.0    0.0       0.785  100.0       0  01:04       0.63
  8002                     0.358   45.6    0.0    0.0       0.629   80.1       0  03:59       0.05
  8004                     0.135   17.1    0.0    0.0       0.293   37.2       0  00:00      20.00
  9000                     0.770   98.0    0.0    0.0       0.785  100.0       0  00:05       2.49
  
  
  ***********************
  Outfall Loading Summary
  ***********************
  
  -----------------------------------------------------------
                         Flow       Avg       Max       Total
                         Freq      Flow      Flow      Volume
  Outfall Node           Pcnt       CFS       CFS    10^6 gal
  -----------------------------------------------------------
  14                   100.00      0.44      1.86       0.046
  -----------------------------------------------------------
  System               100.00      0.44      1.86       0.046
  
  
  ********************
  Link Flow Summary
  ********************
  
  -----------------------------------------------------------------------------
                                 Maximum  Time of Max   Maximum    Max/    Max/
                                  |Flow|   Occurrence   |Veloc|    Full    Full
  Link                 Type          CFS  days hr:min    ft/sec    Flow   Depth
  -----------------------------------------------------------------------------
  11                   CONDUIT      0.16     0  00:23      0.58    1.62    1.00
  13                   CONDUIT      0.54     0  00:24      1.27    4.89    1.00
  17                   CONDUIT      0.10     0  01:56      0.60    0.15    0.51
  19                   CONDUIT      0.10     0  00:24      0.51    0.76    1.00
  21                   CONDUIT      0.23     0  00:24      0.68    2.18    1.00
  23                   CONDUIT      1.86     0  00:24      2.79   16.94    1.00
  25                   CONDUIT      8.62     0  00:00     10.98    1.20    1.00
  31                   CONDUIT      1.89     0  00:01      4.42    0.74    1.00
  33                   CONDUIT      2.68     0  00:01      0.49    0.00    0.00
  35                   CONDUIT      6.81     0  00:00      8.68    1.23    1.00
  43                   CONDUIT      1.67     0  03:04      2.87   15.03    1.00
  45                   CONDUIT      0.10     0  03:59      0.24    0.01    1.00
  47                   CONDUIT      0.05     0  03:58      0.41    0.51    1.00
  49                   CONDUIT      0.09     0  00:22      0.39    0.84    1.00
  51                   CONDUIT      0.17     0  00:23      0.58    1.89    1.00
  53                   CONDUIT      0.23     0  00:23      0.77    1.93    1.00
  55                   CONDUIT      5.35     0  00:00      7.27   33.56    1.00
  57                   CONDUIT     15.43     0  00:06     19.67    1.34    1.00
  59                   CONDUIT     21.17     0  00:00     37.50  125.42    1.00
  5000                 PUMP         0.05     0  00:00              1.00
  5002                 PUMP         0.05     0  00:00              1.00
  5004                 PUMP         0.05     0  00:00              1.00
  5006                 PUMP        20.00     0  00:00              1.00
  
  
  ***************************
  Flow Classification Summary
  ***************************
  
  -------------------------------------------------------------------------------------
                      Adjusted    ---------- Fraction of Time in Flow Class ---------- 
                       /Actual         Up    Down  Sub   Sup   Up    Down  Norm  Inlet 
  Conduit               Length    Dry  Dry   Dry   Crit  Crit  Crit  Crit  Ltd   Ctrl  
  -------------------------------------------------------------------------------------
  11                      1.00   0.01  0.00  0.00  0.99  0.00  0.00  0.00  0.00  0.00
  13                      1.00   0.03  0.00  0.00  0.97  0.00  0.00  0.00  0.00  0.00
  17                      1.00   0.00  0.00  0.00  1.00  0.00  0.00  0.00  0.00  0.00
  19                      1.00   0.00  0.00  0.00  1.00  0.00  0.00  0.00  0.00  0.00
  21                      1.00   0.01  0.00  0.00  0.99  0.00  0.00  0.00  0.00  0.00
  23                      1.00   0.00  0.00  0.00  0.90  0.00  0.10  0.00  0.00  0.00
  25                      1.00   0.00  0.00  0.00  1.00  0.00  0.00  0.00  0.00  0.00
  31                      1.00   0.00  0.00  0.00  1.00  0.00  0.00  0.00  0.00  0.00
  33                      1.00   0.00  0.00  0.00  0.99  0.00  0.01  0.00  0.00  0.00
  35                      1.00   0.00  0.00  0.00  1.00  0.00  0.00  0.00  0.00  0.00
  43                      1.00   0.00  0.00  0.00  1.00  0.00  0.00  0.00  0.00  0.00
  45                      1.00   0.00  0.00  0.00  1.00  0.00  0.00  0.00  0.84  0.00
  47                      1.00   0.00  0.00  0.00  1.00  0.00  0.00  0.00  0.00  0.00
  49                      1.00   0.01  0.00  0.00  0.99  0.00  0.00  0.00  0.00  0.00
  51                      1.00   0.02  0.00  0.00  0.98  0.00  0.00  0.00  0.00  0.00
  53                      1.00   0.03  0.00  0.00  0.97  0.00  0.00  0.00  0.00  0.00
  55                      1.00   0.00  0.00  0.00  1.00  0.00  0.00  0.00  0.00  0.00
  57                      1.00   0.00  0.00  0.00  0.81  0.19  0.00  0.00  0.00  0.00
  59                      1.00   0.00  0.00  0.00  1.00  0.00  0.00  0.00  0.04  0.00
  
  
  *************************
  Conduit Surcharge Summary
  *************************
  
  ----------------------------------------------------------------------------
                                                           Hours        Hours 
                         --------- Hours Full --------   Above Full   Capacity
  Conduit                Both Ends  Upstream  Dnstream   Normal Flow   Limited
  ----------------------------------------------------------------------------
  11                          1.03      1.78      1.66      0.18         0.41
  13                          1.63      1.63      3.13      0.44         0.88
  19                          1.58      2.59      1.80      0.01         0.65
  21                          1.03      1.65      1.61      0.23         0.49
  23                          3.13      3.13      4.00      3.08         1.85
  25                          3.99      3.99      3.99      0.01         0.01
  31                          3.98      3.98      3.98      0.01         0.01
  35                          3.99      3.99      3.99      0.01         0.02
  43                          3.98      3.99      3.99      0.94         2.03
  45                          0.01      0.01      3.99      0.01         0.01
  47                          1.54      2.56      1.77      0.01         0.54
  49                          1.26      1.77      1.62      0.01         0.51
  51                          1.12      1.66      1.55      0.21         0.50
  53                          1.04      1.54      1.61      0.23         0.52
  55                          4.00      4.00      4.00      0.12         0.01
  57                          3.22      4.00      3.22      3.86         3.22
  59                          3.82      3.82      3.99      3.95         3.38
  
  
  ***************
  Pumping Summary
  ***************
  
  ---------------------------------------------------------------------------------------------------------
                                                  Min       Avg       Max     Total     Power    % Time Off
                        Percent   Number of      Flow      Flow      Flow    Volume     Usage    Pump Curve
  Pump                 Utilized   Start-Ups       CFS       CFS       CFS  10^6 gal     Kw-hr    Low   High
  ---------------------------------------------------------------------------------------------------------
  5000                   100.00           1      0.00      0.05      0.05     0.005      0.07    0.0   99.4
  5002                   100.00           1      0.00      0.05      0.05     0.005      0.07    0.0   99.3
  5004                   100.00           1      0.00      0.05      0.05     0.005      0.09    0.0    0.0
  5006                    77.18         237      0.00     20.00     20.00     1.662     86.70    0.0    0.0
  

  Analysis begun on:  Wed Jun 24 16:59:30 2026
  Analysis ended on:  Wed Jun 24 16:59:30 2026
  Total elapsed time: < 1 sec