
  EPA STORM WATER MANAGEMENT MODEL - VERSION 5.2 (Build 5.2.4)
  ------------------------------------------------------------

  
  ERROR 235: invalid infiltration parameters at line 68 of [INFIL] section:
  CM-1            	3         	0.3       	45        

  
  ERROR 235: invalid infiltration parameters at line 69 of [INFIL] section:
  CM-2            	0.3       	1         	35        


  Analysis begun on:  Tue Jun 23 21:10:44 2026
  Analysis ended on:  Tue Jun 23 21:10:44 2026
  Total elapsed time: < 1 sec