
  EPA STORM WATER MANAGEMENT MODEL - VERSION 5.2 (Build 5.2.4)
  ------------------------------------------------------------

  2008 Mahoning Township Sewerage Project 
  Lawrence County, Pennsylvania 
  WARNING 04: minimum elevation drop used for Conduit RS-10
  WARNING 04: minimum elevation drop used for Conduit RS-11
  WARNING 04: minimum elevation drop used for Conduit RS-14
  WARNING 04: minimum elevation drop used for Conduit RS-7
  WARNING 04: minimum elevation drop used for Conduit RS-9
  
  *************
  Element Count
  *************
  Number of rain gages ...... 0
  Number of subcatchments ... 0
  Number of nodes ........... 57
  Number of links ........... 56
  Number of pollutants ...... 0
  Number of land uses ....... 0
  
  
  ************
  Node Summary
  ************
                                           Invert      Max.    Ponded    External
  Name                 Type                 Elev.     Depth      Area    Inflow  
  -------------------------------------------------------------------------------
  MH-C1                JUNCTION           1112.00     15.00       0.0
  MH-C2                JUNCTION           1109.92     21.00       0.0
  MH-C3                JUNCTION           1107.84      6.16       0.0
  MH-C4                JUNCTION           1105.94      9.06       0.0
  MH-C5                JUNCTION           1091.00      4.00       0.0
  MH-C6                JUNCTION           1088.99     33.01       0.0    Yes
  MH-C7                JUNCTION           1087.41     31.59       0.0
  MH-R1                JUNCTION            832.00      6.00       0.0
  MH-R10               JUNCTION            938.00     10.00       0.0    Yes
  MH-R11               JUNCTION            940.28     12.36       0.0    Yes
  MH-R12               JUNCTION            949.77     12.00       0.0
  MH-R13               JUNCTION            964.37     12.00       0.0    Yes
  MH-R14               JUNCTION            975.28     12.00       0.0    Yes
  MH-R15               JUNCTION            983.10     12.00       0.0
  MH-R16               JUNCTION            989.76     12.00       0.0    Yes
  MH-R17               JUNCTION           1002.00     12.00       0.0    Yes
  MH-R18               JUNCTION           1004.00     14.00       0.0
  MH-R19               JUNCTION           1010.25     12.00       0.0
  MH-R1a               JUNCTION            842.32      6.50       0.0
  MH-R2                JUNCTION            902.25      8.00       0.0    Yes
  MH-R20               JUNCTION           1028.16     12.00       0.0    Yes
  MH-R21               JUNCTION           1056.27     12.00       0.0
  MH-R22               JUNCTION           1067.12     16.88       0.0
  MH-R23               JUNCTION           1069.40     19.60       0.0
  MH-R24               JUNCTION           1070.82     16.18       0.0
  MH-R25               JUNCTION           1071.81     15.19       0.0
  MH-R26               JUNCTION           1072.90     17.60       0.0    Yes
  MH-R27               JUNCTION           1074.38     20.62       0.0
  MH-R28               JUNCTION           1075.86     20.14       0.0
  MH-R29               JUNCTION           1078.14     14.86       0.0
  MH-R3                JUNCTION            922.25      8.00       0.0
  MH-R30               JUNCTION           1080.00     10.00       0.0    Yes
  MH-R4                JUNCTION            926.50      8.00       0.0
  MH-R5                JUNCTION            929.05     11.95       0.0    Yes
  MH-R6                JUNCTION            931.33     16.98       0.0
  MH-R7                JUNCTION            933.61     15.89       0.0
  MH-R8                JUNCTION            935.36     12.64       0.0
  MH-R9                JUNCTION            937.16     13.00       0.0    Yes
  RS-1                 JUNCTION            819.00      1.00       0.0
  RS-10                JUNCTION            779.00      1.00       0.0
  RS-11                JUNCTION            779.00      1.00       0.0
  RS-12                JUNCTION            784.00      1.00       0.0
  RS-13                JUNCTION            785.00      1.00       0.0
  RS-14                JUNCTION            785.00      1.00       0.0
  RS-15                JUNCTION            786.00      1.00       0.0
  RS-16                JUNCTION            787.00      1.00       0.0
  RS-2                 JUNCTION            811.00      1.00       0.0
  RS-3                 JUNCTION            808.50      1.00       0.0
  RS-4                 JUNCTION            793.00      1.00       0.0
  RS-5                 JUNCTION            786.00      1.00       0.0
  RS-6                 JUNCTION            769.00      1.00       0.0
  RS-7                 JUNCTION            769.00      1.00       0.0
  RS-8                 JUNCTION            779.00      1.00       0.0
  RS-9                 JUNCTION            779.00      1.00       0.0
  SC-River             JUNCTION            828.50      7.50       0.0
  TP-Inflow            JUNCTION            799.00      3.00       0.0
  MH-315               OUTFALL             798.50      1.00       0.0
  
  
  ************
  Link Summary
  ************
  Name             From Node        To Node          Type            Length    %Slope Roughness
  ---------------------------------------------------------------------------------------------
  Pipe-326         TP-Inflow        MH-315           CONDUIT           33.5    1.4905    0.0130
  Pipe-336         MH-R30           MH-R29           CONDUIT          159.5    0.9779    0.0130
  Pipe-337         MH-R29           MH-R28           CONDUIT          400.0    0.4950    0.0130
  Pipe-338         MH-R28           MH-R27           CONDUIT          240.1    0.4915    0.0130
  Pipe-339         MH-R27           MH-R26           CONDUIT          247.1    0.4776    0.0130
  Pipe-340         MH-R26           MH-R25           CONDUIT          158.6    0.4982    0.0130
  Pipe-341         MH-R25           MH-R24           CONDUIT          142.1    0.4854    0.0130
  Pipe-342         MH-R24           MH-R23           CONDUIT          228.1    0.4911    0.0130
  Pipe-343         MH-R23           MH-R22           CONDUIT          400.1    0.4949    0.0130
  Pipe-344         MH-R22           MH-R21           CONDUIT          400.0    2.6384    0.0130
  Pipe-345         MH-R21           MH-R20           CONDUIT          400.0    6.9699    0.0130
  Pipe-346         MH-R20           MH-R19           CONDUIT          400.0    4.4063    0.0130
  Pipe-347         MH-R19           MH-R18           CONDUIT          151.6    3.9283    0.0130
  Pipe-348         MH-R18           MH-R17           CONDUIT           59.2    2.8743    0.0130
  Pipe-349         MH-R17           MH-R16           CONDUIT          400.0    2.9863    0.0130
  Pipe-350         MH-R16           MH-R15           CONDUIT          400.0    1.5902    0.0130
  Pipe-351         MH-R15           MH-R14           CONDUIT          400.0    1.8803    0.0130
  Pipe-352         MH-R14           MH-R13           CONDUIT          401.3    2.6446    0.0130
  Pipe-353         MH-R13           MH-R12           CONDUIT          400.0    3.5772    0.0130
  Pipe-354         MH-R12           MH-R11           CONDUIT          400.0    2.2982    0.0130
  Pipe-355         MH-R11           MH-R10           CONDUIT          400.0    0.4950    0.0130
  Pipe-356         MH-R10           MH-R9            CONDUIT           58.0    0.9316    0.0130
  Pipe-357         MH-R9            MH-R8            CONDUIT          235.6    0.6366    0.0130
  Pipe-358         MH-R8            MH-R7            CONDUIT          293.5    0.4940    0.0130
  Pipe-359         MH-R7            MH-R6            CONDUIT          400.0    0.4950    0.0130
  Pipe-360         MH-R6            MH-R5            CONDUIT          400.0    0.4950    0.0130
  Pipe-361         MH-R5            MH-R4            CONDUIT          400.0    0.5625    0.0130
  Pipe-362         MH-R4            MH-R3            CONDUIT          198.7    1.9883    0.0130
  Pipe-363         MH-R3            MH-R2            CONDUIT          143.3   13.8821    0.0130
  Pipe-364         MH-R2            MH-R1a           CONDUIT          276.3   22.1447    0.0130
  Pipe-365         MH-R1a           MH-R1            CONDUIT           41.4   25.2287    0.0130
  Pipe-366         MH-R1            SC-River         CONDUIT           41.6    1.2017    0.0130
  Pipe-394         MH-C7            MH-R30           CONDUIT          400.0    1.7778    0.0130
  Pipe-395         MH-C6            MH-C7            CONDUIT          259.8    0.4927    0.0130
  Pipe-396         MH-C5            MH-C6            CONDUIT          345.6    0.4948    0.0130
  Pipe-397         MH-C4            MH-C5            CONDUIT           80.5   18.4924    0.0130
  Pipe-398         MH-C3            MH-C4            CONDUIT          324.3    0.4934    0.0130
  Pipe-399         MH-C2            MH-C3            CONDUIT          360.4    0.4939    0.0130
  Pipe-400         MH-C1            MH-C2            CONDUIT          360.4    0.4939    0.0130
  RS-1             SC-River         RS-1             CONDUIT           75.2   12.7419    0.0130
  RS-10            RS-9             RS-10            CONDUIT          400.1    0.0002    0.0130
  RS-11            RS-10            RS-11            CONDUIT          191.2    0.0005    0.0130
  RS-12            RS-11            RS-12            CONDUIT          726.1   -0.6886    0.0130
  RS-13            RS-12            RS-13            CONDUIT           94.0   -1.0640    0.0130
  RS-14            RS-13            RS-14            CONDUIT          110.3    0.0009    0.0130
  RS-15            RS-14            RS-15            CONDUIT          258.4   -0.3870    0.0130
  RS-16            RS-15            RS-16            CONDUIT           58.6   -1.7067    0.0130
  RS-17            RS-16            TP-Inflow        CONDUIT          209.8   -5.7294    0.0130
  RS-2             RS-1             RS-2             CONDUIT           14.4   66.5481    0.0130
  RS-3             RS-2             RS-3             CONDUIT           28.0    8.9676    0.0130
  RS-4             RS-3             RS-4             CONDUIT           27.9   66.9542    0.0130
  RS-5             RS-4             RS-5             CONDUIT           98.4    7.1290    0.0130
  RS-6             RS-5             RS-6             CONDUIT           62.4   28.2950    0.0130
  RS-7             RS-6             RS-7             CONDUIT          101.2    0.0010    0.0130
  RS-8             RS-7             RS-8             CONDUIT           81.2  -12.4020    0.0130
  RS-9             RS-8             RS-9             CONDUIT           87.9    0.0011    0.0130
  
  
  *********************
  Cross Section Summary
  *********************
                                        Full     Full     Hyd.     Max.   No. of     Full
  Conduit          Shape               Depth     Area     Rad.    Width  Barrels     Flow
  ---------------------------------------------------------------------------------------
  Pipe-326         CIRCULAR             1.00     0.79     0.25     1.00        1     4.35
  Pipe-336         CIRCULAR             1.00     0.79     0.25     1.00        1     3.52
  Pipe-337         CIRCULAR             1.00     0.79     0.25     1.00        1     2.51
  Pipe-338         CIRCULAR             1.00     0.79     0.25     1.00        1     2.50
  Pipe-339         CIRCULAR             1.00     0.79     0.25     1.00        1     2.46
  Pipe-340         CIRCULAR             1.00     0.79     0.25     1.00        1     2.51
  Pipe-341         CIRCULAR             1.00     0.79     0.25     1.00        1     2.48
  Pipe-342         CIRCULAR             1.00     0.79     0.25     1.00        1     2.50
  Pipe-343         CIRCULAR             1.00     0.79     0.25     1.00        1     2.51
  Pipe-344         CIRCULAR             1.00     0.79     0.25     1.00        1     5.79
  Pipe-345         CIRCULAR             1.00     0.79     0.25     1.00        1     9.41
  Pipe-346         CIRCULAR             1.00     0.79     0.25     1.00        1     7.48
  Pipe-347         CIRCULAR             1.00     0.79     0.25     1.00        1     7.06
  Pipe-348         CIRCULAR             1.00     0.79     0.25     1.00        1     6.04
  Pipe-349         CIRCULAR             1.00     0.79     0.25     1.00        1     6.16
  Pipe-350         CIRCULAR             1.00     0.79     0.25     1.00        1     4.49
  Pipe-351         CIRCULAR             1.00     0.79     0.25     1.00        1     4.89
  Pipe-352         CIRCULAR             1.00     0.79     0.25     1.00        1     5.79
  Pipe-353         CIRCULAR             1.00     0.79     0.25     1.00        1     6.74
  Pipe-354         CIRCULAR             1.00     0.79     0.25     1.00        1     5.40
  Pipe-355         CIRCULAR             1.00     0.79     0.25     1.00        1     2.51
  Pipe-356         CIRCULAR             1.00     0.79     0.25     1.00        1     3.44
  Pipe-357         CIRCULAR             1.00     0.79     0.25     1.00        1     2.84
  Pipe-358         CIRCULAR             1.00     0.79     0.25     1.00        1     2.50
  Pipe-359         CIRCULAR             1.00     0.79     0.25     1.00        1     2.51
  Pipe-360         CIRCULAR             1.00     0.79     0.25     1.00        1     2.51
  Pipe-361         CIRCULAR             1.00     0.79     0.25     1.00        1     2.67
  Pipe-362         CIRCULAR             1.00     0.79     0.25     1.00        1     5.02
  Pipe-363         CIRCULAR             1.00     0.79     0.25     1.00        1    13.27
  Pipe-364         CIRCULAR             1.00     0.79     0.25     1.00        1    16.77
  Pipe-365         CIRCULAR             1.00     0.79     0.25     1.00        1    17.90
  Pipe-366         CIRCULAR             1.00     0.79     0.25     1.00        1     3.91
  Pipe-394         CIRCULAR             0.83     0.55     0.21     0.83        1     2.92
  Pipe-395         CIRCULAR             0.83     0.55     0.21     0.83        1     1.54
  Pipe-396         CIRCULAR             0.83     0.55     0.21     0.83        1     1.54
  Pipe-397         CIRCULAR             0.83     0.55     0.21     0.83        1     9.42
  Pipe-398         CIRCULAR             0.83     0.55     0.21     0.83        1     1.54
  Pipe-399         CIRCULAR             0.83     0.55     0.21     0.83        1     1.54
  Pipe-400         CIRCULAR             0.83     0.55     0.21     0.83        1     1.54
  RS-1             CIRCULAR             1.00     0.79     0.25     1.00        1    12.72
  RS-10            CIRCULAR             1.00     0.79     0.25     1.00        1     0.06
  RS-11            CIRCULAR             1.00     0.79     0.25     1.00        1     0.08
  RS-12            CIRCULAR             1.00     0.79     0.25     1.00        1     2.96
  RS-13            CIRCULAR             1.00     0.79     0.25     1.00        1     3.68
  RS-14            CIRCULAR             1.00     0.79     0.25     1.00        1     0.11
  RS-15            CIRCULAR             1.00     0.79     0.25     1.00        1     2.22
  RS-16            CIRCULAR             1.00     0.79     0.25     1.00        1     4.65
  RS-17            CIRCULAR             1.00     0.79     0.25     1.00        1     8.53
  RS-2             CIRCULAR             1.00     0.79     0.25     1.00        1    29.06
  RS-3             CIRCULAR             1.00     0.79     0.25     1.00        1    10.67
  RS-4             CIRCULAR             1.00     0.79     0.25     1.00        1    29.15
  RS-5             CIRCULAR             1.00     0.79     0.25     1.00        1     9.51
  RS-6             CIRCULAR             1.00     0.79     0.25     1.00        1    18.95
  RS-7             CIRCULAR             1.00     0.79     0.25     1.00        1     0.11
  RS-8             CIRCULAR             1.00     0.79     0.25     1.00        1    12.55
  RS-9             CIRCULAR             1.00     0.79     0.25     1.00        1     0.12
  
  
  ****************
  Analysis Options
  ****************
  Flow Units ............... CFS
  Process Models:
    Rainfall/Runoff ........ NO
    RDII ................... NO
    Snowmelt ............... NO
    Groundwater ............ NO
    Flow Routing ........... YES
    Ponding Allowed ........ YES
    Water Quality .......... NO
  Flow Routing Method ...... DYNWAVE
  Surcharge Method ......... EXTRAN
  Starting Date ............ 01/25/2008 06:00:00
  Ending Date .............. 01/27/2008 06:00:00
  Antecedent Dry Days ...... 0.0
  Report Time Step ......... 00:05:00
  Routing Time Step ........ 5.00 sec
  Variable Time Step ....... YES
  Maximum Trials ........... 8
  Number of Threads ........ 1
  Head Tolerance ........... 0.005000 ft
  
  
  *********************
  Control Actions Taken
  *********************

  
  **************************        Volume        Volume
  Flow Routing Continuity        acre-feet      10^6 gal
  **************************     ---------     ---------
  Dry Weather Inflow .......        11.287         3.678
  Wet Weather Inflow .......         0.000         0.000
  Groundwater Inflow .......         0.000         0.000
  RDII Inflow ..............         0.000         0.000
  External Inflow ..........         0.000         0.000
  External Outflow .........         2.021         0.659
  Flooding Loss ............         9.070         2.956
  Evaporation Loss .........         0.000         0.000
  Exfiltration Loss ........         0.000         0.000
  Initial Stored Volume ....         0.000         0.000
  Final Stored Volume ......         0.171         0.056
  Continuity Error (%) .....         0.218
  
  
  *************************
  Highest Continuity Errors
  *************************
  Node MH-C5 (94.34%)
  
  
  ***************************
  Time-Step Critical Elements
  ***************************
  Link RS-2 (99.87%)
  
  
  ********************************
  Highest Flow Instability Indexes
  ********************************
  All links are stable.
  
  
  *********************************
  Most Frequent Nonconverging Nodes
  *********************************
  Node MH-315 (0.27%)
  Node RS-11 (0.15%)
  Node RS-6 (0.13%)
  Node RS-7 (0.12%)
  Node RS-10 (0.12%)
  
  
  *************************
  Routing Time Step Summary
  *************************
  Minimum Time Step           :     0.50 sec
  Average Time Step           :     0.80 sec
  Maximum Time Step           :     5.00 sec
  % of Time in Steady State   :     0.00
  Average Iterations per Step :     2.12
  % of Steps Not Converging   :     0.27
  Time Step Frequencies       :
      5.000 -  3.155 sec      :     0.17 %
      3.155 -  1.991 sec      :     0.01 %
      1.991 -  1.256 sec      :     0.02 %
      1.256 -  0.792 sec      :    99.79 %
      0.792 -  0.500 sec      :     0.00 %
  
  
  ******************
  Node Depth Summary
  ******************
  
  ---------------------------------------------------------------------------------
                                 Average  Maximum  Maximum  Time of Max    Reported
                                   Depth    Depth      HGL   Occurrence   Max Depth
  Node                 Type         Feet     Feet     Feet  days hr:min        Feet
  ---------------------------------------------------------------------------------
  MH-C1                JUNCTION     0.00     0.00  1112.00     0  00:00        0.00
  MH-C2                JUNCTION     0.00     0.00  1109.92     0  00:00        0.00
  MH-C3                JUNCTION     0.00     0.00  1107.84     0  00:00        0.00
  MH-C4                JUNCTION     0.00     0.00  1105.94     0  00:00        0.00
  MH-C5                JUNCTION     3.85     4.00  1095.00     0  00:36        3.87
  MH-C6                JUNCTION     5.86     6.96  1095.95     0  00:02        5.89
  MH-C7                JUNCTION     2.57     3.53  1090.94     0  00:36        2.59
  MH-R1                JUNCTION     0.84     0.84   832.84     0  20:35        0.84
  MH-R10               JUNCTION     2.64     3.33   941.33     0  01:01        2.67
  MH-R11               JUNCTION     3.18     4.90   945.18     0  01:01        3.21
  MH-R12               JUNCTION     0.51     0.52   950.29     0  01:01        0.52
  MH-R13               JUNCTION     0.47     0.47   964.84     0  01:08        0.47
  MH-R14               JUNCTION     0.51     0.51   975.79     0  01:08        0.51
  MH-R15               JUNCTION     0.57     0.57   983.67     0  01:07        0.57
  MH-R16               JUNCTION     0.60     0.60   990.36     0  01:06        0.60
  MH-R17               JUNCTION     0.49     0.49  1002.49     0  01:05        0.49
  MH-R18               JUNCTION     0.59     0.59  1004.59     0  01:04        0.59
  MH-R19               JUNCTION     0.48     0.48  1010.73     0  01:04        0.48
  MH-R1a               JUNCTION     0.27     0.27   842.59     0  07:20        0.27
  MH-R2                JUNCTION     0.29     0.29   902.54     0  07:49        0.29
  MH-R20               JUNCTION     0.44     0.44  1028.60     0  01:04        0.44
  MH-R21               JUNCTION     0.39     0.39  1056.66     0  01:03        0.39
  MH-R22               JUNCTION     0.51     0.51  1067.63     0  01:02        0.51
  MH-R23               JUNCTION     1.59     2.13  1071.53     0  00:36        1.59
  MH-R24               JUNCTION     1.87     2.26  1073.08     0  00:36        1.90
  MH-R25               JUNCTION     2.05     2.39  1074.20     0  00:36        2.06
  MH-R26               JUNCTION     2.24     2.60  1075.50     0  00:36        2.27
  MH-R27               JUNCTION     2.58     2.98  1077.36     0  00:36        2.59
  MH-R28               JUNCTION     2.88     3.33  1079.19     0  00:36        2.89
  MH-R29               JUNCTION     3.38     3.95  1082.09     0  00:36        3.39
  MH-R3                JUNCTION     0.33     0.33   922.58     0  21:24        0.33
  MH-R30               JUNCTION     2.80     3.37  1083.37     0  00:36        2.81
  MH-R4                JUNCTION     0.58     0.58   927.08     0  18:19        0.58
  MH-R5                JUNCTION     1.36     1.37   930.42     1  12:03        1.37
  MH-R6                JUNCTION     1.90     2.96   934.29     0  01:02        1.92
  MH-R7                JUNCTION     2.44     2.99   936.60     0  01:02        2.47
  MH-R8                JUNCTION     2.84     3.20   938.56     0  01:01        2.87
  MH-R9                JUNCTION     2.83     3.47   940.63     0  01:01        2.85
  RS-1                 JUNCTION     0.23     0.23   819.23     1  08:09        0.23
  RS-10                JUNCTION    20.66    21.00   800.00     0  00:41       20.79
  RS-11                JUNCTION    20.61    21.00   800.00     0  00:41       20.74
  RS-12                JUNCTION    15.47    16.00   800.00     0  00:44       15.58
  RS-13                JUNCTION    14.45    15.00   800.00     0  00:45       14.56
  RS-14                JUNCTION    14.42    15.00   800.00     0  00:45       14.53
  RS-15                JUNCTION    13.36    14.00   800.00     0  00:46       13.46
  RS-16                JUNCTION    12.35    13.00   800.00     0  00:47       12.45
  RS-2                 JUNCTION     0.50     0.50   811.50     1  14:05        0.50
  RS-3                 JUNCTION     0.22     0.22   808.72     1  10:08        0.22
  RS-4                 JUNCTION     6.96     7.00   800.00     0  00:45        7.00
  RS-5                 JUNCTION    13.89    14.00   800.00     0  00:45       13.97
  RS-6                 JUNCTION    30.81    31.00   800.00     0  00:45       30.95
  RS-7                 JUNCTION    30.78    31.00   800.00     0  00:45       30.93
  RS-8                 JUNCTION    20.78    21.00   800.00     0  00:45       20.90
  RS-9                 JUNCTION    20.76    21.00   800.00     0  00:45       20.88
  SC-River             JUNCTION     0.38     0.38   828.88     0  12:21        0.38
  TP-Inflow            JUNCTION     0.27     0.28   799.28     0  00:49        0.27
  MH-315               OUTFALL      0.23     0.24   798.74     0  00:49        0.24
  
  
  *******************
  Node Inflow Summary
  *******************
  
  -------------------------------------------------------------------------------------------------
                                  Maximum  Maximum                  Lateral       Total        Flow
                                  Lateral    Total  Time of Max      Inflow      Inflow     Balance
                                   Inflow   Inflow   Occurrence      Volume      Volume       Error
  Node                 Type           CFS      CFS  days hr:min    10^6 gal    10^6 gal     Percent
  -------------------------------------------------------------------------------------------------
  MH-C1                JUNCTION      0.00     0.00     0  00:00           0           0       0.000 gal
  MH-C2                JUNCTION      0.00     0.00     0  00:00           0           0       0.000 gal
  MH-C3                JUNCTION      0.00     0.00     0  00:00           0           0       0.000 gal
  MH-C4                JUNCTION      0.00     0.00     0  00:00           0           0       0.000 gal
  MH-C5                JUNCTION      0.00     0.50     0  00:04           0     0.00108    1667.015
  MH-C6                JUNCTION      2.82     2.85     0  00:08        3.64        3.64       0.059
  MH-C7                JUNCTION      0.00     2.85     0  00:08           0        3.64       0.047
  MH-R1                JUNCTION      0.00     2.85     0  01:57           0        3.63       0.007
  MH-R10               JUNCTION      0.00     2.88     0  00:47       0.002        3.64       0.014
  MH-R11               JUNCTION      0.00     2.84     0  01:01       0.002        3.64       0.101
  MH-R12               JUNCTION      0.00     2.84     0  01:08           0        3.64       0.032
  MH-R13               JUNCTION      0.00     2.84     0  01:08       0.002        3.64       0.030
  MH-R14               JUNCTION      0.00     2.84     0  01:07       0.002        3.64       0.033
  MH-R15               JUNCTION      0.00     2.83     0  01:06           0        3.64       0.038
  MH-R16               JUNCTION      0.00     2.83     0  01:05       0.004        3.64       0.041
  MH-R17               JUNCTION      0.00     2.83     0  01:04       0.006        3.64       0.032
  MH-R18               JUNCTION      0.00     2.83     0  01:04           0        3.63       0.006
  MH-R19               JUNCTION      0.00     2.83     0  01:04           0        3.63       0.012
  MH-R1a               JUNCTION      0.00     2.85     0  01:57           0        3.63       0.001
  MH-R2                JUNCTION      0.00     2.85     0  05:38       0.002        3.63       0.011
  MH-R20               JUNCTION      0.01     2.83     0  01:03        0.01        3.63       0.027
  MH-R21               JUNCTION      0.00     2.82     0  01:02           0        3.62       0.023
  MH-R22               JUNCTION      0.00     2.83     0  00:36           0        3.62       0.033
  MH-R23               JUNCTION      0.00     2.83     0  00:36           0        3.63       0.085
  MH-R24               JUNCTION      0.00     2.82     0  00:36           0        3.63       0.047
  MH-R25               JUNCTION      0.00     2.82     0  00:36           0        3.63       0.029
  MH-R26               JUNCTION      0.00     2.82     0  00:36       0.002        3.63       0.032
  MH-R27               JUNCTION      0.00     2.82     0  00:36           0        3.63       0.049
  MH-R28               JUNCTION      0.00     2.82     0  01:02           0        3.63       0.050
  MH-R29               JUNCTION      0.00     2.83     0  00:14           0        3.64       0.081
  MH-R3                JUNCTION      0.00     2.84     0  02:09           0        3.63       0.007
  MH-R30               JUNCTION      0.00     2.85     0  00:23       0.002        3.64       0.027
  MH-R4                JUNCTION      0.00     2.84     0  02:21           0        3.63       0.019
  MH-R5                JUNCTION      0.00     2.86     0  01:02       0.002        3.63       0.085
  MH-R6                JUNCTION      0.00     2.89     0  01:01           0        3.63       0.087
  MH-R7                JUNCTION      0.00     2.89     0  01:01           0        3.64       0.080
  MH-R8                JUNCTION      0.00     2.88     0  01:01           0        3.64       0.061
  MH-R9                JUNCTION      0.00     2.86     0  01:01       0.002        3.64       0.041
  RS-1                 JUNCTION      0.00     2.85     0  06:30           0        3.63       0.001
  RS-10                JUNCTION      0.00     2.51     0  00:43           0       0.669       0.263
  RS-11                JUNCTION      0.00     2.51     0  00:43           0       0.668       0.407
  RS-12                JUNCTION      0.00     2.51     0  00:43           0       0.665       0.368
  RS-13                JUNCTION      0.00     2.48     0  00:46           0       0.662       0.093
  RS-14                JUNCTION      0.00     2.48     0  00:46           0       0.662       0.165
  RS-15                JUNCTION      0.00     2.49     0  00:46           0       0.661       0.142
  RS-16                JUNCTION      0.00     2.47     0  00:46           0        0.66       0.122
  RS-2                 JUNCTION      0.00     2.85     0  02:06           0        3.63       0.002
  RS-3                 JUNCTION      0.00     2.85     0  05:11           0        3.63       0.001
  RS-4                 JUNCTION      0.00     2.85     0  02:06           0        3.63       0.010
  RS-5                 JUNCTION      0.00     2.51     0  00:43           0       0.673       0.073
  RS-6                 JUNCTION      0.00     2.51     0  00:43           0       0.672       0.075
  RS-7                 JUNCTION      0.00     2.51     0  00:43           0       0.672       0.082
  RS-8                 JUNCTION      0.00     2.51     0  00:43           0       0.671       0.078
  RS-9                 JUNCTION      0.00     2.51     0  00:43           0       0.671       0.217
  SC-River             JUNCTION      0.00     2.85     1  18:06           0        3.63       0.002
  TP-Inflow            JUNCTION      0.00     0.76     0  00:48           0       0.659       0.029
  MH-315               OUTFALL       0.00     0.55     0  00:49           0       0.658       0.000
  
  
  **********************
  Node Surcharge Summary
  **********************
  
  Surcharging occurs when water rises above the top of the highest conduit.
  ---------------------------------------------------------------------
                                               Max. Height   Min. Depth
                                   Hours       Above Crown    Below Rim
  Node                 Type      Surcharged           Feet         Feet
  ---------------------------------------------------------------------
  MH-C5                JUNCTION       47.87          2.867        0.000
  MH-C6                JUNCTION       47.95          5.829       26.048
  MH-C7                JUNCTION       47.39          2.398       28.059
  MH-R10               JUNCTION       46.98          2.033        6.667
  MH-R11               JUNCTION       47.22          3.601        7.459
  MH-R23               JUNCTION       47.46          0.833       17.467
  MH-R24               JUNCTION       47.49          0.960       13.920
  MH-R25               JUNCTION       47.53          1.092       12.798
  MH-R26               JUNCTION       47.55          1.300       15.000
  MH-R27               JUNCTION       47.57          1.680       17.640
  MH-R28               JUNCTION       47.66          2.033       16.807
  MH-R29               JUNCTION       47.74          2.654       10.906
  MH-R30               JUNCTION       47.58          2.240        6.627
  MH-R5                JUNCTION       46.71          0.065       10.585
  MH-R6                JUNCTION       46.97          1.662       14.018
  MH-R7                JUNCTION       47.01          1.686       12.904
  MH-R8                JUNCTION       47.10          1.904        9.436
  MH-R9                JUNCTION       47.06          2.169        9.531
  RS-10                JUNCTION       47.36         20.000        0.000
  RS-11                JUNCTION       47.31         20.000        0.000
  RS-12                JUNCTION       47.27         15.000        0.000
  RS-13                JUNCTION       47.25         14.000        0.000
  RS-14                JUNCTION       47.24         14.000        0.000
  RS-15                JUNCTION       47.22         13.000        0.000
  RS-16                JUNCTION       47.21         12.000        0.000
  RS-4                 JUNCTION       47.26          6.000        0.000
  RS-5                 JUNCTION       47.31         13.000        0.000
  RS-6                 JUNCTION       47.44         30.000        0.000
  RS-7                 JUNCTION       47.44         30.000        0.000
  RS-8                 JUNCTION       47.40         20.000        0.000
  RS-9                 JUNCTION       47.39         20.000        0.000
  
  
  *********************
  Node Flooding Summary
  *********************
  
  Flooding refers to all water that overflows a node, whether it ponds or not.
  --------------------------------------------------------------------------
                                                             Total   Maximum
                                 Maximum   Time of Max       Flood    Ponded
                        Hours       Rate    Occurrence      Volume     Depth
  Node                 Flooded       CFS   days hr:min    10^6 gal      Feet
  --------------------------------------------------------------------------
  MH-C5                   0.01      0.04      0  00:36       0.000     0.000
  RS-10                   0.01      0.80      0  00:41       0.000    20.000
  RS-11                   0.01      1.54      0  00:41       0.000    20.000
  RS-12                   0.01      2.08      0  00:44       0.000    15.000
  RS-13                   0.01      0.88      0  00:45       0.000    14.000
  RS-14                   0.01      1.76      0  00:45       0.000    14.000
  RS-15                   0.01      1.61      0  00:46       0.000    13.000
  RS-16                   0.01      0.72      0  00:47       0.000    12.000
  RS-4                   47.23      2.33      1  06:53       2.955     6.000
  RS-5                    0.01      0.09      0  00:45       0.000    13.000
  RS-6                    0.01      0.10      0  00:45       0.000    30.000
  RS-7                    0.01      0.09      0  00:45       0.000    30.000
  RS-8                    0.01      0.15      0  00:45       0.000    20.000
  RS-9                    0.01      0.04      0  00:45       0.000    20.000
  
  
  ***********************
  Outfall Loading Summary
  ***********************
  
  -----------------------------------------------------------
                         Flow       Avg       Max       Total
                         Freq      Flow      Flow      Volume
  Outfall Node           Pcnt       CFS       CFS    10^6 gal
  -----------------------------------------------------------
  MH-315                99.26      0.52      0.55       0.658
  -----------------------------------------------------------
  System                99.26      0.52      0.55       0.658
  
  
  ********************
  Link Flow Summary
  ********************
  
  -----------------------------------------------------------------------------
                                 Maximum  Time of Max   Maximum    Max/    Max/
                                  |Flow|   Occurrence   |Veloc|    Full    Full
  Link                 Type          CFS  days hr:min    ft/sec    Flow   Depth
  -----------------------------------------------------------------------------
  Pipe-326             CONDUIT      0.55     0  00:49      3.42    0.13    0.26
  Pipe-336             CONDUIT      2.83     0  00:14      4.63    0.80    1.00
  Pipe-337             CONDUIT      2.82     0  01:02      3.69    1.12    1.00
  Pipe-338             CONDUIT      2.82     0  00:36      3.64    1.13    1.00
  Pipe-339             CONDUIT      2.82     0  00:36      3.66    1.15    1.00
  Pipe-340             CONDUIT      2.82     0  00:36      3.60    1.12    1.00
  Pipe-341             CONDUIT      2.82     0  00:36      3.69    1.14    1.00
  Pipe-342             CONDUIT      2.83     0  00:36      3.73    1.13    1.00
  Pipe-343             CONDUIT      2.83     0  00:36      3.94    1.13    0.86
  Pipe-344             CONDUIT      2.82     0  01:02      7.14    0.49    0.50
  Pipe-345             CONDUIT      2.82     0  01:03     10.26    0.30    0.38
  Pipe-346             CONDUIT      2.83     0  01:04      8.67    0.38    0.43
  Pipe-347             CONDUIT      2.83     0  01:04      8.03    0.40    0.46
  Pipe-348             CONDUIT      2.83     0  01:04      6.61    0.47    0.54
  Pipe-349             CONDUIT      2.83     0  01:05      7.49    0.46    0.49
  Pipe-350             CONDUIT      2.83     0  01:06      5.88    0.63    0.59
  Pipe-351             CONDUIT      2.83     0  01:07      6.28    0.58    0.56
  Pipe-352             CONDUIT      2.84     0  01:08      7.16    0.49    0.50
  Pipe-353             CONDUIT      2.84     0  01:08      8.03    0.42    0.46
  Pipe-354             CONDUIT      2.84     0  01:01      6.45    0.53    0.76
  Pipe-355             CONDUIT      2.88     0  00:47      3.99    1.15    1.00
  Pipe-356             CONDUIT      2.86     0  01:01      4.18    0.83    1.00
  Pipe-357             CONDUIT      2.88     0  01:01      3.95    1.01    1.00
  Pipe-358             CONDUIT      2.89     0  01:01      3.67    1.15    1.00
  Pipe-359             CONDUIT      2.89     0  01:01      3.69    1.15    1.00
  Pipe-360             CONDUIT      2.85     0  01:02      3.96    1.14    1.00
  Pipe-361             CONDUIT      2.84     0  02:21      3.95    1.06    0.86
  Pipe-362             CONDUIT      2.84     0  02:09      6.26    0.57    0.56
  Pipe-363             CONDUIT      2.84     0  05:38     12.87    0.21    0.32
  Pipe-364             CONDUIT      2.85     0  01:57     15.52    0.17    0.28
  Pipe-365             CONDUIT      2.85     0  01:57     10.75    0.16    0.45
  Pipe-366             CONDUIT      2.85     1  18:06      4.59    0.73    0.74
  Pipe-394             CONDUIT      2.85     0  00:23      5.89    0.97    1.00
  Pipe-395             CONDUIT      2.85     0  00:08      5.35    1.86    1.00
  Pipe-396             CONDUIT      0.50     0  00:04      1.39    0.33    1.00
  Pipe-397             CONDUIT      0.00     0  00:00      0.00    0.00    0.50
  Pipe-398             CONDUIT      0.00     0  00:00      0.00    0.00    0.00
  Pipe-399             CONDUIT      0.00     0  00:00      0.00    0.00    0.00
  Pipe-400             CONDUIT      0.00     0  00:00      0.00    0.00    0.00
  RS-1                 CONDUIT      2.85     0  06:30     13.75    0.22    0.31
  RS-10                CONDUIT      2.51     0  00:43      3.92   44.56    1.00
  RS-11                CONDUIT      2.51     0  00:43      4.12   30.82    1.00
  RS-12                CONDUIT      2.51     0  00:43      3.85    0.85    1.00
  RS-13                CONDUIT      2.48     0  00:46      4.75    0.67    1.00
  RS-14                CONDUIT      2.48     0  00:46      5.31   23.16    1.00
  RS-15                CONDUIT      2.49     0  00:46      4.81    1.12    1.00
  RS-16                CONDUIT      2.47     0  00:46      5.44    0.53    1.00
  RS-17                CONDUIT      0.76     0  00:48      1.62    0.09    0.64
  RS-2                 CONDUIT      2.85     0  02:06     10.88    0.10    0.37
  RS-3                 CONDUIT      2.85     0  05:11     11.22    0.27    0.36
  RS-4                 CONDUIT      2.85     0  02:06     13.68    0.10    0.61
  RS-5                 CONDUIT      2.51     0  00:43     10.57    0.26    1.00
  RS-6                 CONDUIT      2.51     0  00:43      4.27    0.13    1.00
  RS-7                 CONDUIT      2.51     0  00:43      3.19   22.40    1.00
  RS-8                 CONDUIT      2.51     0  00:43      3.48    0.20    1.00
  RS-9                 CONDUIT      2.51     0  00:43      3.19   20.88    1.00
  
  
  ***************************
  Flow Classification Summary
  ***************************
  
  -------------------------------------------------------------------------------------
                      Adjusted    ---------- Fraction of Time in Flow Class ---------- 
                       /Actual         Up    Down  Sub   Sup   Up    Down  Norm  Inlet 
  Conduit               Length    Dry  Dry   Dry   Crit  Crit  Crit  Crit  Ltd   Ctrl  
  -------------------------------------------------------------------------------------
  Pipe-326                1.00   0.02  0.00  0.00  0.00  0.98  0.00  0.00  0.00  0.00
  Pipe-336                1.00   0.00  0.00  0.00  1.00  0.00  0.00  0.00  0.00  0.00
  Pipe-337                1.00   0.00  0.00  0.00  1.00  0.00  0.00  0.00  0.00  0.00
  Pipe-338                1.00   0.00  0.00  0.00  0.99  0.00  0.00  0.00  0.00  0.00
  Pipe-339                1.00   0.00  0.00  0.00  0.99  0.00  0.00  0.01  0.00  0.00
  Pipe-340                1.00   0.00  0.00  0.00  0.99  0.00  0.00  0.01  0.00  0.00
  Pipe-341                1.00   0.00  0.00  0.00  0.99  0.00  0.00  0.01  0.00  0.00
  Pipe-342                1.00   0.00  0.00  0.00  0.99  0.00  0.00  0.01  0.00  0.00
  Pipe-343                1.00   0.00  0.00  0.00  0.00  0.00  0.00  1.00  0.00  0.00
  Pipe-344                1.00   0.00  0.00  0.00  0.00  0.00  0.00  1.00  0.00  0.00
  Pipe-345                1.00   0.00  0.00  0.00  0.00  0.00  0.00  1.00  0.00  0.00
  Pipe-346                1.00   0.00  0.00  0.00  0.00  0.00  0.00  1.00  0.00  0.00
  Pipe-347                1.00   0.00  0.00  0.00  0.00  0.00  0.00  1.00  0.00  0.00
  Pipe-348                1.00   0.00  0.00  0.00  0.00  0.00  0.00  1.00  0.00  0.00
  Pipe-349                1.00   0.00  0.00  0.00  0.00  0.00  0.00  1.00  0.00  0.00
  Pipe-350                1.00   0.00  0.00  0.00  0.00  0.00  0.00  1.00  0.00  0.00
  Pipe-351                1.00   0.00  0.00  0.00  0.00  0.00  0.00  1.00  0.00  0.00
  Pipe-352                1.00   0.00  0.00  0.00  0.00  0.00  0.00  1.00  0.00  0.00
  Pipe-353                1.00   0.00  0.00  0.00  0.00  0.00  0.00  1.00  0.00  0.00
  Pipe-354                1.00   0.00  0.00  0.00  0.98  0.01  0.00  0.01  0.99  0.00
  Pipe-355                1.00   0.00  0.00  0.00  0.98  0.00  0.00  0.02  0.00  0.00
  Pipe-356                1.00   0.00  0.00  0.00  0.98  0.00  0.00  0.02  0.00  0.00
  Pipe-357                1.00   0.00  0.00  0.00  0.99  0.00  0.00  0.01  0.00  0.00
  Pipe-358                1.00   0.00  0.00  0.00  0.98  0.00  0.00  0.02  0.00  0.00
  Pipe-359                1.00   0.00  0.00  0.00  0.98  0.00  0.00  0.02  0.00  0.00
  Pipe-360                1.00   0.00  0.00  0.00  0.98  0.00  0.00  0.02  0.00  0.00
  Pipe-361                1.00   0.00  0.00  0.00  0.00  0.00  0.00  1.00  0.00  0.00
  Pipe-362                1.00   0.00  0.00  0.00  0.00  0.00  0.00  1.00  0.00  0.00
  Pipe-363                1.00   0.00  0.00  0.00  0.00  0.00  0.00  1.00  0.00  0.00
  Pipe-364                1.00   0.00  0.00  0.00  0.00  0.00  0.00  1.00  0.00  0.00
  Pipe-365                1.00   0.00  0.00  0.00  0.00  0.99  0.00  0.01  0.97  0.00
  Pipe-366                1.00   0.00  0.00  0.00  0.00  0.00  0.00  1.00  0.00  0.00
  Pipe-394                1.00   0.00  0.00  0.00  0.99  0.00  0.00  0.01  0.00  0.00
  Pipe-395                1.00   0.00  0.00  0.00  0.99  0.00  0.00  0.01  0.00  0.00
  Pipe-396                1.00   0.00  0.00  0.00  1.00  0.00  0.00  0.00  0.00  0.00
  Pipe-397                1.00   0.00  1.00  0.00  0.00  0.00  0.00  0.00  0.00  0.00
  Pipe-398                1.00   1.00  0.00  0.00  0.00  0.00  0.00  0.00  0.00  0.00
  Pipe-399                1.00   1.00  0.00  0.00  0.00  0.00  0.00  0.00  0.00  0.00
  Pipe-400                1.00   1.00  0.00  0.00  0.00  0.00  0.00  0.00  0.00  0.00
  RS-1                    1.00   0.00  0.00  0.00  0.00  1.00  0.00  0.00  0.00  0.00
  RS-10                   1.00   0.01  0.00  0.00  0.99  0.00  0.00  0.00  0.00  0.00
  RS-11                   1.00   0.01  0.00  0.00  0.99  0.00  0.00  0.00  0.00  0.00
  RS-12                   1.00   0.01  0.00  0.00  0.99  0.00  0.00  0.00  0.00  0.00
  RS-13                   1.00   0.01  0.00  0.00  0.98  0.00  0.00  0.00  0.00  0.00
  RS-14                   1.00   0.02  0.00  0.00  0.98  0.00  0.00  0.00  0.00  0.00
  RS-15                   1.00   0.02  0.00  0.00  0.98  0.00  0.00  0.00  0.00  0.00
  RS-16                   1.00   0.02  0.00  0.00  0.98  0.00  0.00  0.00  0.00  0.00
  RS-17                   1.00   0.02  0.00  0.00  0.98  0.00  0.00  0.00  0.00  0.00
  RS-2                    1.00   0.00  0.00  0.00  0.00  1.00  0.00  0.00  0.01  0.00
  RS-3                    1.00   0.00  0.00  0.00  0.00  1.00  0.00  0.00  0.00  0.00
  RS-4                    1.00   0.00  0.00  0.00  0.00  1.00  0.00  0.00  0.01  0.00
  RS-5                    1.00   0.00  0.00  0.00  0.99  0.01  0.00  0.00  0.00  0.00
  RS-6                    1.00   0.00  0.00  0.00  0.99  0.00  0.00  0.00  0.01  0.00
  RS-7                    1.00   0.00  0.00  0.00  1.00  0.00  0.00  0.00  0.00  0.00
  RS-8                    1.00   0.00  0.01  0.00  0.99  0.00  0.00  0.00  0.00  0.00
  RS-9                    1.00   0.01  0.00  0.00  0.99  0.00  0.00  0.00  0.00  0.00
  
  
  *************************
  Conduit Surcharge Summary
  *************************
  
  ----------------------------------------------------------------------------
                                                           Hours        Hours 
                         --------- Hours Full --------   Above Full   Capacity
  Conduit                Both Ends  Upstream  Dnstream   Normal Flow   Limited
  ----------------------------------------------------------------------------
  Pipe-336                   47.62     47.62     47.74      0.01         0.01
  Pipe-337                   47.66     47.81     47.66     47.80        47.66
  Pipe-338                   47.57     47.77     47.57     47.75        47.57
  Pipe-339                   47.55     47.74     47.55     47.72        47.55
  Pipe-340                   47.53     47.70     47.53     47.69        47.53
  Pipe-341                   47.49     47.69     47.49     47.67        47.49
  Pipe-342                   47.46     47.65     47.46     47.64        47.46
  Pipe-343                    0.01     47.59      0.01     47.57         0.01
  Pipe-354                    0.01      0.01     47.22      0.01         0.01
  Pipe-355                   46.98     47.40     46.98     47.37        46.98
  Pipe-356                   47.06     47.09     47.06      0.01        47.06
  Pipe-357                   47.10     47.15     47.10      0.02        47.10
  Pipe-358                   47.01     47.32     47.01     47.29        47.01
  Pipe-359                   46.97     47.22     46.97     47.19        46.97
  Pipe-360                   46.71     47.14     46.71     47.11        46.71
  Pipe-361                    0.01     46.94      0.01     46.92         0.01
  Pipe-394                   47.45     47.45     47.58      0.01        47.39
  Pipe-395                   47.39     47.97     47.39     47.97        47.39
  Pipe-396                   47.89     47.89     47.95      0.01         0.01
  RS-10                      47.36     47.39     47.36     47.41        47.34
  RS-11                      47.31     47.36     47.31     47.38        47.31
  RS-12                      47.27     47.27     47.31      0.01         0.01
  RS-13                      47.25     47.25     47.27      0.01         0.01
  RS-14                      47.24     47.25     47.24     47.26        47.23
  RS-15                      47.22     47.22     47.24      0.02         0.01
  RS-16                      47.21     47.21     47.22      0.01         0.01
  RS-17                       0.01      0.01     47.21      0.01         0.01
  RS-4                        0.01      0.01     47.26      0.01         0.01
  RS-5                       47.26     47.26     47.31      0.01         0.01
  RS-6                       47.31     47.31     47.44      0.01         0.01
  RS-7                       47.44     47.44     47.44     47.48        47.43
  RS-8                       47.40     47.40     47.44      0.01         0.01
  RS-9                       47.39     47.40     47.39     47.43        47.38
  

  Analysis begun on:  Tue Jun 23 20:32:30 2026
  Analysis ended on:  Tue Jun 23 20:32:34 2026
  Total elapsed time: 00:00:04