
  EPA STORM WATER MANAGEMENT MODEL - VERSION 5.2 (Build 5.2.4)
  ------------------------------------------------------------

  Monthly adjustments to depression storage are now applied only to the pervious area of subcatchments instead of to both pervious and impervious areas. 
  
  *************
  Element Count
  *************
  Number of rain gages ...... 1
  Number of subcatchments ... 8
  Number of nodes ........... 14
  Number of links ........... 13
  Number of pollutants ...... 0
  Number of land uses ....... 0
  
  
  ****************
  Raingage Summary
  ****************
                                                      Data       Recording
  Name                 Data Source                    Type       Interval 
  ------------------------------------------------------------------------
  RG1                  TS1                            INTENSITY   60 min.
  
  
  ********************
  Subcatchment Summary
  ********************
  Name                       Area     Width   %Imperv    %Slope Rain Gage            Outlet              
  -----------------------------------------------------------------------------------------------------------
  1                         10.00    500.00     50.00    0.0100 RG1                  9                   
  2                         10.00    500.00     50.00    0.0100 RG1                  10                  
  3                         10.00    500.00     50.00    0.0100 RG1                  13                  
  4                         10.00    500.00     50.00    0.0100 RG1                  22                  
  5                         10.00    500.00     50.00    0.0100 RG1                  15                  
  6                         10.00    500.00     50.00    0.0100 RG1                  23                  
  7                         10.00    500.00     50.00    0.0100 RG1                  19                  
  8                         10.00    500.00     50.00    0.0100 RG1                  18                  
  
  
  ************
  Node Summary
  ************
                                           Invert      Max.    Ponded    External
  Name                 Type                 Elev.     Depth      Area    Inflow  
  -------------------------------------------------------------------------------
  9                    JUNCTION           1000.00      3.00       0.0
  10                   JUNCTION            995.00      3.00       0.0
  13                   JUNCTION            995.00      3.00       0.0
  14                   JUNCTION            990.00      3.00       0.0
  15                   JUNCTION            987.00      3.00       0.0
  16                   JUNCTION            985.00      3.00       0.0
  17                   JUNCTION            980.00      3.00       0.0
  19                   JUNCTION           1010.00      3.00       0.0
  20                   JUNCTION           1005.00      3.00       0.0
  21                   JUNCTION            990.00      3.00       0.0
  22                   JUNCTION            987.00      3.00       0.0
  23                   JUNCTION            990.00      3.00       0.0
  24                   JUNCTION            984.00      3.00       0.0
  18                   OUTFALL             975.00      2.00       0.0
  
  
  ************
  Link Summary
  ************
  Name             From Node        To Node          Type            Length    %Slope Roughness
  ---------------------------------------------------------------------------------------------
  1                9                10               CONDUIT          400.0    1.2501    0.0100
  4                19               20               CONDUIT          200.0    2.5008    0.0100
  5                20               21               CONDUIT          200.0    7.5212    0.0100
  6                10               21               CONDUIT          400.0    1.0001    0.0100
  7                21               22               CONDUIT          300.0    1.0001    0.0100
  8                22               16               CONDUIT          300.0    0.6667    0.0100
  10               17               18               CONDUIT          400.0    1.2501    0.0100
  11               13               14               CONDUIT          400.0    1.2501    0.0100
  12               14               15               CONDUIT          400.0    0.7500    0.0100
  13               15               16               CONDUIT          400.0    0.5000    0.0100
  14               23               24               CONDUIT          400.0    1.5002    0.0100
  15               16               24               CONDUIT          100.0    1.0001    0.0100
  16               24               17               CONDUIT          400.0    1.0001    0.0100
  
  
  *********************
  Cross Section Summary
  *********************
                                        Full     Full     Hyd.     Max.   No. of     Full
  Conduit          Shape               Depth     Area     Rad.    Width  Barrels     Flow
  ---------------------------------------------------------------------------------------
  1                CIRCULAR             1.50     1.77     0.38     1.50        1    15.27
  4                CIRCULAR             1.00     0.79     0.25     1.00        1     7.32
  5                CIRCULAR             1.00     0.79     0.25     1.00        1    12.70
  6                CIRCULAR             1.00     0.79     0.25     1.00        1     4.63
  7                CIRCULAR             2.00     3.14     0.50     2.00        1    29.41
  8                CIRCULAR             2.00     3.14     0.50     2.00        1    24.01
  10               CIRCULAR             2.00     3.14     0.50     2.00        1    32.88
  11               CIRCULAR             1.50     1.77     0.38     1.50        1    15.27
  12               CIRCULAR             1.50     1.77     0.38     1.50        1    11.83
  13               CIRCULAR             1.50     1.77     0.38     1.50        1     9.66
  14               CIRCULAR             1.00     0.79     0.25     1.00        1     5.67
  15               CIRCULAR             2.00     3.14     0.50     2.00        1    29.41
  16               CIRCULAR             2.00     3.14     0.50     2.00        1    29.41
  
  
  ****************
  Analysis Options
  ****************
  Flow Units ............... CFS
  Process Models:
    Rainfall/Runoff ........ YES
    RDII ................... NO
    Snowmelt ............... NO
    Groundwater ............ NO
    Flow Routing ........... YES
    Ponding Allowed ........ NO
    Water Quality .......... NO
  Infiltration Method ...... HORTON
  Flow Routing Method ...... DYNWAVE
  Surcharge Method ......... EXTRAN
  Starting Date ............ 01/01/1998 00:00:00
  Ending Date .............. 01/02/1998 12:00:00
  Antecedent Dry Days ...... 5.0
  Report Time Step ......... 01:00:00
  Wet Time Step ............ 00:15:00
  Dry Time Step ............ 01:00:00
  Routing Time Step ........ 60.00 sec
  Variable Time Step ....... YES
  Maximum Trials ........... 8
  Number of Threads ........ 1
  Head Tolerance ........... 0.005000 ft
  
  
  **************************        Volume         Depth
  Runoff Quantity Continuity     acre-feet        inches
  **************************     ---------       -------
  Total Precipitation ......        17.667         2.650
  Evaporation Loss .........         0.315         0.047
  Infiltration Loss ........         8.833         1.325
  Surface Runoff ...........         8.509         1.276
  Final Storage ............         0.086         0.013
  Continuity Error (%) .....        -0.431
  
  
  **************************        Volume        Volume
  Flow Routing Continuity        acre-feet      10^6 gal
  **************************     ---------     ---------
  Dry Weather Inflow .......         0.000         0.000
  Wet Weather Inflow .......         8.507         2.772
  Groundwater Inflow .......         0.000         0.000
  RDII Inflow ..............         0.000         0.000
  External Inflow ..........         0.000         0.000
  External Outflow .........         8.341         2.718
  Flooding Loss ............         0.163         0.053
  Evaporation Loss .........         0.000         0.000
  Exfiltration Loss ........         0.000         0.000
  Initial Stored Volume ....         0.000         0.000
  Final Stored Volume ......         0.002         0.001
  Continuity Error (%) .....         0.008
  
  
  ***************************
  Time-Step Critical Elements
  ***************************
  Link 15 (77.57%)
  
  
  ********************************
  Highest Flow Instability Indexes
  ********************************
  All links are stable.
  
  
  *********************************
  Most Frequent Nonconverging Nodes
  *********************************
  Node 10 (0.02%)
  Node 18 (0.02%)
  
  
  *************************
  Routing Time Step Summary
  *************************
  Minimum Time Step           :     4.76 sec
  Average Time Step           :    20.07 sec
  Maximum Time Step           :    60.00 sec
  % of Time in Steady State   :     0.00
  Average Iterations per Step :     2.03
  % of Steps Not Converging   :     0.02
  Time Step Frequencies       :
     60.000 - 23.031 sec      :    26.12 %
     23.031 -  8.841 sec      :    11.60 %
      8.841 -  3.393 sec      :    62.28 %
      3.393 -  1.303 sec      :     0.00 %
      1.303 -  0.500 sec      :     0.00 %
  
  
  ***************************
  Subcatchment Runoff Summary
  ***************************
  
  ------------------------------------------------------------------------------------------------------------------------------
                            Total      Total      Total      Total     Imperv       Perv      Total       Total     Peak  Runoff
                           Precip      Runon       Evap      Infil     Runoff     Runoff     Runoff      Runoff   Runoff   Coeff
  Subcatchment                 in         in         in         in         in         in         in    10^6 gal      CFS
  ------------------------------------------------------------------------------------------------------------------------------
  1                          2.65       0.00       0.05       1.33       1.28       0.00       1.28        0.35     4.01   0.482
  2                          2.65       0.00       0.05       1.33       1.28       0.00       1.28        0.35     4.01   0.482
  3                          2.65       0.00       0.05       1.33       1.28       0.00       1.28        0.35     4.01   0.482
  4                          2.65       0.00       0.05       1.33       1.28       0.00       1.28        0.35     4.01   0.482
  5                          2.65       0.00       0.05       1.33       1.28       0.00       1.28        0.35     4.01   0.482
  6                          2.65       0.00       0.05       1.33       1.28       0.00       1.28        0.35     4.01   0.482
  7                          2.65       0.00       0.05       1.33       1.28       0.00       1.28        0.35     4.01   0.482
  8                          2.65       0.00       0.05       1.33       1.28       0.00       1.28        0.35     4.01   0.482
  
  
  ******************
  Node Depth Summary
  ******************
  
  ---------------------------------------------------------------------------------
                                 Average  Maximum  Maximum  Time of Max    Reported
                                   Depth    Depth      HGL   Occurrence   Max Depth
  Node                 Type         Feet     Feet     Feet  days hr:min        Feet
  ---------------------------------------------------------------------------------
  9                    JUNCTION     0.23     0.52  1000.52     0  04:00        0.52
  10                   JUNCTION     0.71     3.00   998.00     0  03:06        3.00
  13                   JUNCTION     0.23     0.52   995.52     0  04:00        0.52
  14                   JUNCTION     0.27     0.60   990.60     0  04:00        0.60
  15                   JUNCTION     0.43     1.04   988.04     0  04:00        1.04
  16                   JUNCTION     0.57     1.33   986.33     0  04:00        1.33
  17                   JUNCTION     0.58     1.34   981.34     0  04:00        1.34
  19                   JUNCTION     0.24     0.56  1010.56     0  04:00        0.56
  20                   JUNCTION     0.17     0.39  1005.39     0  04:00        0.39
  21                   JUNCTION     1.37     1.80   991.80     0  04:00        1.80
  22                   JUNCTION     0.50     1.09   988.09     0  04:00        1.09
  23                   JUNCTION     0.26     0.62   990.62     0  04:00        0.62
  24                   JUNCTION     0.62     1.47   985.47     0  04:00        1.47
  18                   OUTFALL      0.58     1.34   976.34     0  04:00        1.34
  
  
  *******************
  Node Inflow Summary
  *******************
  
  -------------------------------------------------------------------------------------------------
                                  Maximum  Maximum                  Lateral       Total        Flow
                                  Lateral    Total  Time of Max      Inflow      Inflow     Balance
                                   Inflow   Inflow   Occurrence      Volume      Volume       Error
  Node                 Type           CFS      CFS  days hr:min    10^6 gal    10^6 gal     Percent
  -------------------------------------------------------------------------------------------------
  9                    JUNCTION      4.01     4.01     0  04:00       0.346       0.346      -0.008
  10                   JUNCTION      4.01     8.02     0  04:00       0.346       0.693       0.047
  13                   JUNCTION      4.01     4.01     0  04:00       0.346       0.346      -0.011
  14                   JUNCTION      0.00     4.01     0  04:00           0       0.347       0.013
  15                   JUNCTION      4.01     8.02     0  04:00       0.346       0.693      -0.003
  16                   JUNCTION      0.00    21.84     0  04:00           0        2.03       0.007
  17                   JUNCTION      0.00    25.85     0  04:00           0        2.37       0.009
  19                   JUNCTION      4.01     4.01     0  04:00       0.346       0.346      -0.004
  20                   JUNCTION      0.00     4.01     0  04:00           0       0.346      -0.001
  21                   JUNCTION      0.00     9.81     0  04:00           0       0.986       0.030
  22                   JUNCTION      4.01    13.82     0  04:00       0.346        1.33      -0.001
  23                   JUNCTION      4.01     4.01     0  04:00       0.346       0.346      -0.017
  24                   JUNCTION      0.00    25.85     0  04:00           0        2.37      -0.002
  18                   OUTFALL       4.01    29.87     0  04:00       0.346        2.72       0.000
  
  
  **********************
  Node Surcharge Summary
  **********************
  
  Surcharging occurs when water rises above the top of the highest conduit.
  ---------------------------------------------------------------------
                                               Max. Height   Min. Depth
                                   Hours       Above Crown    Below Rim
  Node                 Type      Surcharged           Feet         Feet
  ---------------------------------------------------------------------
  10                   JUNCTION        1.13          1.500        0.000
  
  
  *********************
  Node Flooding Summary
  *********************
  
  Flooding refers to all water that overflows a node, whether it ponds or not.
  --------------------------------------------------------------------------
                                                             Total   Maximum
                                 Maximum   Time of Max       Flood    Ponded
                        Hours       Rate    Occurrence      Volume     Depth
  Node                 Flooded       CFS   days hr:min    10^6 gal      Feet
  --------------------------------------------------------------------------
  10                      1.06      2.23      0  04:00       0.053     0.000
  
  
  ***********************
  Outfall Loading Summary
  ***********************
  
  -----------------------------------------------------------
                         Flow       Avg       Max       Total
                         Freq      Flow      Flow      Volume
  Outfall Node           Pcnt       CFS       CFS    10^6 gal
  -----------------------------------------------------------
  18                    78.27     12.74     29.87       2.718
  -----------------------------------------------------------
  System                78.27     12.74     29.87       2.718
  
  
  ********************
  Link Flow Summary
  ********************
  
  -----------------------------------------------------------------------------
                                 Maximum  Time of Max   Maximum    Max/    Max/
                                  |Flow|   Occurrence   |Veloc|    Full    Full
  Link                 Type          CFS  days hr:min    ft/sec    Flow   Depth
  -----------------------------------------------------------------------------
  1                    CONDUIT      4.01     0  04:00      3.58    0.26    0.67
  4                    CONDUIT      4.01     0  04:00     11.01    0.55    0.47
  5                    CONDUIT      4.01     0  04:00      6.91    0.32    0.69
  6                    CONDUIT      5.79     0  03:23      7.43    1.25    0.97
  7                    CONDUIT      9.81     0  04:00      8.42    0.33    0.40
  8                    CONDUIT     13.82     0  04:00      7.01    0.58    0.60
  10                   CONDUIT     25.85     0  04:00     11.59    0.79    0.67
  11                   CONDUIT      4.01     0  04:00      6.61    0.26    0.38
  12                   CONDUIT      4.01     0  04:00      4.04    0.34    0.55
  13                   CONDUIT      8.02     0  04:00      5.36    0.83    0.79
  14                   CONDUIT      4.01     0  04:00      5.88    0.71    0.81
  15                   CONDUIT     21.84     0  04:00      9.34    0.74    0.70
  16                   CONDUIT     25.85     0  04:00     11.00    0.88    0.70
  
  
  ***************************
  Flow Classification Summary
  ***************************
  
  -------------------------------------------------------------------------------------
                      Adjusted    ---------- Fraction of Time in Flow Class ---------- 
                       /Actual         Up    Down  Sub   Sup   Up    Down  Norm  Inlet 
  Conduit               Length    Dry  Dry   Dry   Crit  Crit  Crit  Crit  Ltd   Ctrl  
  -------------------------------------------------------------------------------------
  1                       1.00   0.65  0.02  0.00  0.20  0.13  0.00  0.00  0.97  0.00
  4                       1.00   0.03  0.00  0.00  0.65  0.32  0.00  0.00  0.66  0.00
  5                       1.00   0.03  0.63  0.00  0.29  0.06  0.00  0.00  0.97  0.00
  6                       1.00   0.03  0.62  0.00  0.05  0.09  0.00  0.21  0.76  0.00
  7                       1.00   0.03  0.00  0.00  0.00  0.00  0.00  0.97  0.00  0.00
  8                       1.00   0.03  0.00  0.00  0.67  0.30  0.00  0.00  0.91  0.00
  10                      1.00   0.03  0.00  0.00  0.60  0.37  0.00  0.00  0.13  0.00
  11                      1.00   0.66  0.01  0.00  0.03  0.29  0.00  0.00  0.96  0.00
  12                      1.00   0.65  0.02  0.00  0.34  0.00  0.00  0.00  0.97  0.00
  13                      1.00   0.03  0.62  0.00  0.34  0.01  0.00  0.00  0.96  0.00
  14                      1.00   0.03  0.63  0.00  0.30  0.04  0.00  0.00  0.97  0.00
  15                      1.00   0.03  0.00  0.00  0.65  0.33  0.00  0.00  0.84  0.00
  16                      1.00   0.03  0.00  0.00  0.64  0.33  0.00  0.00  0.68  0.00
  
  
  *************************
  Conduit Surcharge Summary
  *************************
  
  ----------------------------------------------------------------------------
                                                           Hours        Hours 
                         --------- Hours Full --------   Above Full   Capacity
  Conduit                Both Ends  Upstream  Dnstream   Normal Flow   Limited
  ----------------------------------------------------------------------------
  1                           0.01      0.01      1.13      0.01         0.01
  5                           0.01      0.01     34.82      0.01         0.01
  6                           0.01      1.32      0.01      2.08         0.01
  14                          0.01      0.01      2.25      0.01         0.01
  

  Analysis begun on:  Tue Jun 23 20:57:56 2026
  Analysis ended on:  Tue Jun 23 20:57:56 2026
  Total elapsed time: < 1 sec