
  EPA STORM WATER MANAGEMENT MODEL - VERSION 5.2 (Build 5.2.4)
  ------------------------------------------------------------

  Conduit evaporation and seepage losses are now applied directly to the conduit's flow rate instead of just to the downstream node's inflow to reduce water quality mass balance errors. 
  
  *************
  Element Count
  *************
  Number of rain gages ...... 1
  Number of subcatchments ... 8
  Number of nodes ........... 14
  Number of links ........... 13
  Number of pollutants ...... 0
  Number of land uses ....... 0
  
  
  ****************
  Raingage Summary
  ****************
                                                      Data       Recording
  Name                 Data Source                    Type       Interval 
  ------------------------------------------------------------------------
  RG1                  TS1                            INTENSITY   60 min.
  
  
  ********************
  Subcatchment Summary
  ********************
  Name                       Area     Width   %Imperv    %Slope Rain Gage            Outlet              
  -----------------------------------------------------------------------------------------------------------
  1                         10.00    500.00      0.00    0.0100 RG1                  9                   
  2                         10.00    500.00      0.00    0.0100 RG1                  10                  
  3                         10.00    500.00      0.00    0.0100 RG1                  13                  
  4                         10.00    500.00      0.00    0.0100 RG1                  22                  
  5                         10.00    500.00      0.00    0.0100 RG1                  15                  
  6                         10.00    500.00      0.00    0.0100 RG1                  23                  
  7                         10.00    500.00      0.00    0.0100 RG1                  19                  
  8                         10.00    500.00      0.00    0.0100 RG1                  18                  
  
  
  ************
  Node Summary
  ************
                                           Invert      Max.    Ponded    External
  Name                 Type                 Elev.     Depth      Area    Inflow  
  -------------------------------------------------------------------------------
  9                    JUNCTION           1000.00      3.00       0.0
  10                   JUNCTION            995.00      3.00       0.0
  13                   JUNCTION            995.00      3.00       0.0
  14                   JUNCTION            990.00      3.00       0.0
  15                   JUNCTION            987.00      3.00       0.0
  16                   JUNCTION            985.00      3.00       0.0
  17                   JUNCTION            980.00      3.00       0.0
  19                   JUNCTION           1010.00      3.00       0.0
  20                   JUNCTION           1005.00      3.00       0.0
  21                   JUNCTION            990.00      3.00       0.0
  22                   JUNCTION            987.00      3.00       0.0
  23                   JUNCTION            990.00      3.00       0.0
  24                   JUNCTION            984.00      3.00       0.0
  18                   OUTFALL             975.00      2.00       0.0
  
  
  ************
  Link Summary
  ************
  Name             From Node        To Node          Type            Length    %Slope Roughness
  ---------------------------------------------------------------------------------------------
  1                9                10               CONDUIT          400.0    1.2501    0.0100
  4                19               20               CONDUIT          200.0    2.5008    0.0100
  5                20               21               CONDUIT          200.0    7.5212    0.0100
  6                10               21               CONDUIT          400.0    1.0001    0.0100
  7                21               22               CONDUIT          300.0    1.0001    0.0100
  8                22               16               CONDUIT          300.0    0.6667    0.0100
  10               17               18               CONDUIT          400.0    1.2501    0.0100
  11               13               14               CONDUIT          400.0    1.2501    0.0100
  12               14               15               CONDUIT          400.0    0.7500    0.0100
  13               15               16               CONDUIT          400.0    0.5000    0.0100
  14               23               24               CONDUIT          400.0    1.5002    0.0100
  15               16               24               CONDUIT          100.0    1.0001    0.0100
  16               24               17               CONDUIT          400.0    1.0001    0.0100
  
  
  *********************
  Cross Section Summary
  *********************
                                        Full     Full     Hyd.     Max.   No. of     Full
  Conduit          Shape               Depth     Area     Rad.    Width  Barrels     Flow
  ---------------------------------------------------------------------------------------
  1                CIRCULAR             1.50     1.77     0.38     1.50        1    15.27
  4                CIRCULAR             1.00     0.79     0.25     1.00        1     7.32
  5                CIRCULAR             1.00     0.79     0.25     1.00        1    12.70
  6                CIRCULAR             1.00     0.79     0.25     1.00        1     4.63
  7                CIRCULAR             2.00     3.14     0.50     2.00        1    29.41
  8                CIRCULAR             2.00     3.14     0.50     2.00        1    24.01
  10               CIRCULAR             2.00     3.14     0.50     2.00        1    32.88
  11               CIRCULAR             1.50     1.77     0.38     1.50        1    15.27
  12               CIRCULAR             1.50     1.77     0.38     1.50        1    11.83
  13               CIRCULAR             1.50     1.77     0.38     1.50        1     9.66
  14               CIRCULAR             1.00     0.79     0.25     1.00        1     5.67
  15               CIRCULAR             2.00     3.14     0.50     2.00        1    29.41
  16               CIRCULAR             2.00     3.14     0.50     2.00        1    29.41
  
  
  ****************
  Analysis Options
  ****************
  Flow Units ............... CFS
  Process Models:
    Rainfall/Runoff ........ YES
    RDII ................... NO
    Snowmelt ............... NO
    Groundwater ............ NO
    Flow Routing ........... YES
    Ponding Allowed ........ NO
    Water Quality .......... NO
  Infiltration Method ...... HORTON
  Flow Routing Method ...... DYNWAVE
  Surcharge Method ......... EXTRAN
  Starting Date ............ 01/01/1998 00:00:00
  Ending Date .............. 01/02/1998 12:00:00
  Antecedent Dry Days ...... 5.0
  Report Time Step ......... 01:00:00
  Wet Time Step ............ 00:15:00
  Dry Time Step ............ 01:00:00
  Routing Time Step ........ 60.00 sec
  Variable Time Step ....... YES
  Maximum Trials ........... 8
  Number of Threads ........ 1
  Head Tolerance ........... 0.005000 ft
  
  
  **************************        Volume         Depth
  Runoff Quantity Continuity     acre-feet        inches
  **************************     ---------       -------
  Total Precipitation ......        17.667         2.650
  Evaporation Loss .........         0.667         0.100
  Infiltration Loss ........        16.559         2.484
  Surface Runoff ...........         0.499         0.075
  Final Storage ............         0.000         0.000
  Continuity Error (%) .....        -0.328
  
  
  **************************        Volume        Volume
  Flow Routing Continuity        acre-feet      10^6 gal
  **************************     ---------     ---------
  Dry Weather Inflow .......         0.000         0.000
  Wet Weather Inflow .......         0.499         0.162
  Groundwater Inflow .......         0.000         0.000
  RDII Inflow ..............         0.000         0.000
  External Inflow ..........         0.000         0.000
  External Outflow .........         0.481         0.157
  Flooding Loss ............         0.000         0.000
  Evaporation Loss .........         0.000         0.000
  Exfiltration Loss ........         0.016         0.005
  Initial Stored Volume ....         0.000         0.000
  Final Stored Volume ......         0.002         0.001
  Continuity Error (%) .....         0.006
  
  
  *************************
  Highest Continuity Errors
  *************************
  Node 21 (1.03%)
  
  
  ***************************
  Time-Step Critical Elements
  ***************************
  Link 15 (45.27%)
  
  
  ********************************
  Highest Flow Instability Indexes
  ********************************
  All links are stable.
  
  
  *********************************
  Most Frequent Nonconverging Nodes
  *********************************
  Convergence obtained at all time steps.
  
  
  *************************
  Routing Time Step Summary
  *************************
  Minimum Time Step           :     4.33 sec
  Average Time Step           :    39.19 sec
  Maximum Time Step           :    60.00 sec
  % of Time in Steady State   :     0.00
  Average Iterations per Step :     2.00
  % of Steps Not Converging   :     0.00
  Time Step Frequencies       :
     60.000 - 23.031 sec      :    58.08 %
     23.031 -  8.841 sec      :    41.86 %
      8.841 -  3.393 sec      :     0.06 %
      3.393 -  1.303 sec      :     0.00 %
      1.303 -  0.500 sec      :     0.00 %
  
  
  ***************************
  Subcatchment Runoff Summary
  ***************************
  
  ------------------------------------------------------------------------------------------------------------------------------
                            Total      Total      Total      Total     Imperv       Perv      Total       Total     Peak  Runoff
                           Precip      Runon       Evap      Infil     Runoff     Runoff     Runoff      Runoff   Runoff   Coeff
  Subcatchment                 in         in         in         in         in         in         in    10^6 gal      CFS
  ------------------------------------------------------------------------------------------------------------------------------
  1                          2.65       0.00       0.10       2.48       0.00       0.07       0.07        0.02     0.29   0.028
  2                          2.65       0.00       0.10       2.48       0.00       0.07       0.07        0.02     0.29   0.028
  3                          2.65       0.00       0.10       2.48       0.00       0.07       0.07        0.02     0.29   0.028
  4                          2.65       0.00       0.10       2.48       0.00       0.07       0.07        0.02     0.29   0.028
  5                          2.65       0.00       0.10       2.48       0.00       0.07       0.07        0.02     0.29   0.028
  6                          2.65       0.00       0.10       2.48       0.00       0.07       0.07        0.02     0.29   0.028
  7                          2.65       0.00       0.10       2.48       0.00       0.07       0.07        0.02     0.29   0.028
  8                          2.65       0.00       0.10       2.48       0.00       0.07       0.07        0.02     0.29   0.028
  
  
  ******************
  Node Depth Summary
  ******************
  
  ---------------------------------------------------------------------------------
                                 Average  Maximum  Maximum  Time of Max    Reported
                                   Depth    Depth      HGL   Occurrence   Max Depth
  Node                 Type         Feet     Feet     Feet  days hr:min        Feet
  ---------------------------------------------------------------------------------
  9                    JUNCTION     0.05     0.14  1000.14     0  05:01        0.14
  10                   JUNCTION     0.07     0.23   995.23     0  05:04        0.23
  13                   JUNCTION     0.05     0.14   995.14     0  05:01        0.14
  14                   JUNCTION     0.05     0.16   990.16     0  05:04        0.16
  15                   JUNCTION     0.08     0.25   987.25     0  05:05        0.24
  16                   JUNCTION     0.10     0.32   985.32     0  05:06        0.32
  17                   JUNCTION     0.11     0.33   980.33     0  05:07        0.32
  19                   JUNCTION     0.05     0.14  1010.14     0  05:00        0.14
  20                   JUNCTION     0.03     0.10  1005.10     0  05:01        0.10
  21                   JUNCTION     1.00     1.23   991.23     0  05:05        1.23
  22                   JUNCTION     0.09     0.29   987.29     0  05:05        0.29
  23                   JUNCTION     0.05     0.15   990.15     0  05:01        0.15
  24                   JUNCTION     0.11     0.35   984.35     0  05:06        0.34
  18                   OUTFALL      0.10     0.33   975.33     0  05:07        0.32
  
  
  *******************
  Node Inflow Summary
  *******************
  
  -------------------------------------------------------------------------------------------------
                                  Maximum  Maximum                  Lateral       Total        Flow
                                  Lateral    Total  Time of Max      Inflow      Inflow     Balance
                                   Inflow   Inflow   Occurrence      Volume      Volume       Error
  Node                 Type           CFS      CFS  days hr:min    10^6 gal    10^6 gal     Percent
  -------------------------------------------------------------------------------------------------
  9                    JUNCTION      0.29     0.29     0  05:00      0.0203      0.0203      -0.025
  10                   JUNCTION      0.29     0.57     0  05:01      0.0203      0.0401       0.028
  13                   JUNCTION      0.29     0.29     0  05:00      0.0203      0.0203      -0.035
  14                   JUNCTION      0.00     0.29     0  05:01           0      0.0203       0.035
  15                   JUNCTION      0.29     0.57     0  05:03      0.0203      0.0406      -0.013
  16                   JUNCTION      0.00     1.68     0  05:05           0       0.117       0.012
  17                   JUNCTION      0.00     1.96     0  05:06           0       0.136       0.008
  19                   JUNCTION      0.29     0.29     0  05:00      0.0203      0.0203      -0.020
  20                   JUNCTION      0.00     0.29     0  05:00           0      0.0201      -0.049
  21                   JUNCTION      0.00     0.84     0  05:03           0      0.0587       1.039
  22                   JUNCTION      0.29     1.12     0  05:04      0.0203       0.077      -0.010
  23                   JUNCTION      0.29     0.29     0  05:00      0.0203      0.0203      -0.055
  24                   JUNCTION      0.00     1.96     0  05:06           0       0.136       0.001
  18                   OUTFALL       0.29     2.24     0  05:07      0.0203       0.157       0.000
  
  
  **********************
  Node Surcharge Summary
  **********************
  
  No nodes were surcharged.
  
  
  *********************
  Node Flooding Summary
  *********************
  
  No nodes were flooded.
  
  
  ***********************
  Outfall Loading Summary
  ***********************
  
  -----------------------------------------------------------
                         Flow       Avg       Max       Total
                         Freq      Flow      Flow      Volume
  Outfall Node           Pcnt       CFS       CFS    10^6 gal
  -----------------------------------------------------------
  18                    45.96      1.22      2.24       0.157
  -----------------------------------------------------------
  System                45.96      1.22      2.24       0.157
  
  
  ********************
  Link Flow Summary
  ********************
  
  -----------------------------------------------------------------------------
                                 Maximum  Time of Max   Maximum    Max/    Max/
                                  |Flow|   Occurrence   |Veloc|    Full    Full
  Link                 Type          CFS  days hr:min    ft/sec    Flow   Depth
  -----------------------------------------------------------------------------
  1                    CONDUIT      0.28     0  05:01      2.23    0.02    0.13
  4                    CONDUIT      0.29     0  05:00      5.21    0.04    0.12
  5                    CONDUIT      0.28     0  05:01      1.37    0.02    0.55
  6                    CONDUIT      0.56     0  05:04      3.99    0.12    0.23
  7                    CONDUIT      0.83     0  05:05      4.12    0.03    0.12
  8                    CONDUIT      1.11     0  05:05      3.60    0.05    0.15
  10                   CONDUIT      1.96     0  05:07      5.75    0.06    0.17
  11                   CONDUIT      0.29     0  05:01      3.09    0.02    0.10
  12                   CONDUIT      0.29     0  05:04      1.98    0.02    0.14
  13                   CONDUIT      0.57     0  05:05      2.44    0.06    0.19
  14                   CONDUIT      0.29     0  05:01      2.06    0.05    0.25
  15                   CONDUIT      1.67     0  05:06      4.75    0.06    0.17
  16                   CONDUIT      1.96     0  05:06      5.48    0.07    0.17
  
  
  ***************************
  Flow Classification Summary
  ***************************
  
  -------------------------------------------------------------------------------------
                      Adjusted    ---------- Fraction of Time in Flow Class ---------- 
                       /Actual         Up    Down  Sub   Sup   Up    Down  Norm  Inlet 
  Conduit               Length    Dry  Dry   Dry   Crit  Crit  Crit  Crit  Ltd   Ctrl  
  -------------------------------------------------------------------------------------
  1                       1.00   0.11  0.00  0.00  0.78  0.11  0.00  0.00  0.90  0.00
  4                       1.00   0.11  0.00  0.00  0.73  0.16  0.00  0.00  0.00  0.00
  5                       1.00   0.10  0.74  0.00  0.16  0.00  0.00  0.00  0.89  0.00
  6                       1.00   0.10  0.00  0.00  0.00  0.01  0.00  0.88  0.73  0.00
  7                       1.00   0.85  0.00  0.00  0.00  0.00  0.00  0.15  0.00  0.00
  8                       1.00   0.10  0.73  0.00  0.02  0.14  0.00  0.00  0.89  0.00
  10                      1.00   0.11  0.00  0.00  0.72  0.18  0.00  0.00  0.04  0.00
  11                      1.00   0.83  0.01  0.00  0.01  0.15  0.00  0.00  0.89  0.00
  12                      1.00   0.10  0.72  0.00  0.17  0.00  0.00  0.00  0.90  0.00
  13                      1.00   0.10  0.00  0.00  0.88  0.01  0.00  0.00  0.15  0.00
  14                      1.00   0.82  0.01  0.00  0.16  0.01  0.00  0.00  0.89  0.00
  15                      1.00   0.10  0.00  0.00  0.74  0.16  0.00  0.00  0.89  0.00
  16                      1.00   0.10  0.72  0.00  0.02  0.16  0.00  0.00  0.74  0.00
  
  
  *************************
  Conduit Surcharge Summary
  *************************
  
  ----------------------------------------------------------------------------
                                                           Hours        Hours 
                         --------- Hours Full --------   Above Full   Capacity
  Conduit                Both Ends  Upstream  Dnstream   Normal Flow   Limited
  ----------------------------------------------------------------------------
  5                           0.01      0.01     31.88      0.01         0.01
  

  Analysis begun on:  Tue Jun 23 20:57:58 2026
  Analysis ended on:  Tue Jun 23 20:57:58 2026
  Total elapsed time: < 1 sec