
  EPA STORM WATER MANAGEMENT MODEL - VERSION 5.2 (Build 5.2.4)
  ------------------------------------------------------------

  
  ERROR 203: too few items at line 57 of [SUBCATCHMENT] section:
  1                RG1              9                10      0       500      0.01                             

  
  ERROR 203: too few items at line 59 of [SUBCATCHMENT] section:
  3                RG1              13               10      0       500      0.01                            


  Analysis begun on:  Tue Jun 23 20:57:58 2026
  Analysis ended on:  Tue Jun 23 20:57:58 2026
  Total elapsed time: < 1 sec