
  EPA STORM WATER MANAGEMENT MODEL - VERSION 5.2 (Build 5.2.4)
  ------------------------------------------------------------

  A mix of infiltration methods can now be used within a project. 
  
  *************
  Element Count
  *************
  Number of rain gages ...... 1
  Number of subcatchments ... 8
  Number of nodes ........... 14
  Number of links ........... 13
  Number of pollutants ...... 2
  Number of land uses ....... 2
  
  
  *****************
  Pollutant Summary
  *****************
                               Ppt.      GW         Kdecay
  Name                 Units   Concen.   Concen.    1/days    CoPollutant
  -----------------------------------------------------------------------
  TSS                   MG/L      0.00      0.00      0.00
  Lead                  UG/L      0.00      0.00      0.00    TSS  (0.20)
  
  
  ***************
  Landuse Summary
  ***************
                         Sweeping   Maximum      Last
  Name                   Interval   Removal     Swept
  ---------------------------------------------------
  Residential                0.00      0.00      0.00
  Undeveloped                0.00      0.00      0.00
  
  
  ****************
  Raingage Summary
  ****************
                                                      Data       Recording
  Name                 Data Source                    Type       Interval 
  ------------------------------------------------------------------------
  RG1                  TS1                            INTENSITY   60 min.
  
  
  ********************
  Subcatchment Summary
  ********************
  Name                       Area     Width   %Imperv    %Slope Rain Gage            Outlet              
  -----------------------------------------------------------------------------------------------------------
  1                         10.00    500.00     50.00    0.0100 RG1                  9                   
  2                         10.00    500.00     50.00    0.0100 RG1                  10                  
  3                          5.00    500.00     50.00    0.0100 RG1                  13                  
  4                          5.00    500.00     50.00    0.0100 RG1                  22                  
  5                         15.00    500.00     50.00    0.0100 RG1                  15                  
  6                         12.00    500.00     10.00    0.0100 RG1                  23                  
  7                          4.00    500.00     10.00    0.0100 RG1                  19                  
  8                         10.00    500.00     10.00    0.0100 RG1                  18                  
  
  
  ************
  Node Summary
  ************
                                           Invert      Max.    Ponded    External
  Name                 Type                 Elev.     Depth      Area    Inflow  
  -------------------------------------------------------------------------------
  9                    JUNCTION           1000.00      3.00       0.0
  10                   JUNCTION            995.00      3.00       0.0
  13                   JUNCTION            995.00      3.00       0.0
  14                   JUNCTION            990.00      3.00       0.0
  15                   JUNCTION            987.00      3.00       0.0
  16                   JUNCTION            985.00      3.00       0.0
  17                   JUNCTION            980.00      3.00       0.0
  19                   JUNCTION           1010.00      3.00       0.0
  20                   JUNCTION           1005.00      3.00       0.0
  21                   JUNCTION            990.00      3.00       0.0
  22                   JUNCTION            987.00      3.00       0.0
  23                   JUNCTION            990.00      3.00       0.0
  24                   JUNCTION            984.00      3.00       0.0
  18                   OUTFALL             975.00      2.00       0.0
  
  
  ************
  Link Summary
  ************
  Name             From Node        To Node          Type            Length    %Slope Roughness
  ---------------------------------------------------------------------------------------------
  1                9                10               CONDUIT          400.0    1.2501    0.0100
  4                19               20               CONDUIT          200.0    2.5008    0.0100
  5                20               21               CONDUIT          200.0    7.5212    0.0100
  6                10               21               CONDUIT          400.0    1.0001    0.0100
  7                21               22               CONDUIT          300.0    1.0001    0.0100
  8                22               16               CONDUIT          300.0    0.6667    0.0100
  10               17               18               CONDUIT          400.0    1.2501    0.0100
  11               13               14               CONDUIT          400.0    1.2501    0.0100
  12               14               15               CONDUIT          400.0    0.7500    0.0100
  13               15               16               CONDUIT          400.0    0.5000    0.0100
  14               23               24               CONDUIT          400.0    1.5002    0.0100
  15               16               24               CONDUIT          100.0    1.0001    0.0100
  16               24               17               CONDUIT          400.0    1.0001    0.0100
  
  
  *********************
  Cross Section Summary
  *********************
                                        Full     Full     Hyd.     Max.   No. of     Full
  Conduit          Shape               Depth     Area     Rad.    Width  Barrels     Flow
  ---------------------------------------------------------------------------------------
  1                CIRCULAR             1.50     1.77     0.38     1.50        1    15.27
  4                CIRCULAR             1.00     0.79     0.25     1.00        1     7.32
  5                CIRCULAR             1.00     0.79     0.25     1.00        1    12.70
  6                CIRCULAR             1.00     0.79     0.25     1.00        1     4.63
  7                CIRCULAR             2.00     3.14     0.50     2.00        1    29.41
  8                CIRCULAR             2.00     3.14     0.50     2.00        1    24.01
  10               CIRCULAR             2.00     3.14     0.50     2.00        1    32.88
  11               CIRCULAR             1.50     1.77     0.38     1.50        1    15.27
  12               CIRCULAR             1.50     1.77     0.38     1.50        1    11.83
  13               CIRCULAR             1.50     1.77     0.38     1.50        1     9.66
  14               CIRCULAR             1.00     0.79     0.25     1.00        1     5.67
  15               CIRCULAR             2.00     3.14     0.50     2.00        1    29.41
  16               CIRCULAR             2.00     3.14     0.50     2.00        1    29.41
  
  
  ****************
  Analysis Options
  ****************
  Flow Units ............... CFS
  Process Models:
    Rainfall/Runoff ........ YES
    RDII ................... NO
    Snowmelt ............... NO
    Groundwater ............ NO
    Flow Routing ........... YES
    Ponding Allowed ........ NO
    Water Quality .......... YES
  Infiltration Method ...... HORTON
  Flow Routing Method ...... DYNWAVE
  Surcharge Method ......... EXTRAN
  Starting Date ............ 01/01/1998 00:00:00
  Ending Date .............. 01/02/1998 12:00:00
  Antecedent Dry Days ...... 5.0
  Report Time Step ......... 01:00:00
  Wet Time Step ............ 00:15:00
  Dry Time Step ............ 01:00:00
  Routing Time Step ........ 60.00 sec
  Variable Time Step ....... YES
  Maximum Trials ........... 8
  Number of Threads ........ 1
  Head Tolerance ........... 0.005000 ft
  
  
  **************************        Volume         Depth
  Runoff Quantity Continuity     acre-feet        inches
  **************************     ---------       -------
  Total Precipitation ......        15.679         2.650
  Evaporation Loss .........   -171355.763    -28961.537
  Infiltration Loss ........         8.428         1.424
  Surface Runoff ...........        14.197         2.400
  Final Storage ............         0.564         0.095
  Continuity Error (%) .....         0.000
  
  
  **************************           TSS          Lead
  Runoff Quality Continuity            lbs           lbs
  **************************    ----------    ----------
  Initial Buildup ..........     36132.173    107557.211
  Surface Buildup ..........      1083.584         0.017
  Wet Deposition ...........         0.000         0.000
  Sweeping Removal .........         0.000         0.000
  Infiltration Loss ........        -1.515         0.000
  BMP Removal ..............         0.000         0.000
  Surface Runoff ...........        84.391         0.017
  Remaining Buildup ........     37131.480    107557.211
  Continuity Error (%) .....         0.004         0.000
  
  
  **************************        Volume        Volume
  Flow Routing Continuity        acre-feet      10^6 gal
  **************************     ---------     ---------
  Dry Weather Inflow .......         0.000         0.000
  Wet Weather Inflow .......      3017.201       983.200
  Groundwater Inflow .......         0.000         0.000
  RDII Inflow ..............         0.000         0.000
  External Inflow ..........         0.000         0.000
  External Outflow .........      1499.847       488.748
  Flooding Loss ............      1524.421       496.755
  Evaporation Loss .........         0.000         0.000
  Exfiltration Loss ........         0.000         0.000
  Initial Stored Volume ....         0.000         0.000
  Final Stored Volume ......         0.083         0.027
  Continuity Error (%) .....        -0.237
  
  
  **************************           TSS          Lead
  Quality Routing Continuity           lbs           lbs
  **************************    ----------    ----------
  Dry Weather Inflow .......         0.000         0.000
  Wet Weather Inflow .......       312.451         0.017
  Groundwater Inflow .......         0.000         0.000
  RDII Inflow ..............         0.000         0.000
  External Inflow ..........         0.004         0.000
  External Outflow .........       235.708         0.002
  Flooding Loss ............        75.268         0.015
  Exfiltration Loss ........         0.000         0.000
  Mass Reacted .............         0.000         0.000
  Initial Stored Mass ......         0.040         0.000
  Final Stored Mass ........         1.721         0.000
  Continuity Error (%) .....        -0.065        -0.213
  
  
  *************************
  Highest Continuity Errors
  *************************
  Node 21 (1.53%)
  
  
  ***************************
  Time-Step Critical Elements
  ***************************
  Link 14 (62.08%)
  Link 4 (17.56%)
  Link 8 (13.39%)
  
  
  ********************************
  Highest Flow Instability Indexes
  ********************************
  Link 8 (5)
  Link 13 (2)
  
  
  *********************************
  Most Frequent Nonconverging Nodes
  *********************************
  Node 18 (0.26%)
  Node 10 (0.12%)
  Node 16 (0.06%)
  Node 9 (0.03%)
  Node 21 (0.03%)
  
  
  *************************
  Routing Time Step Summary
  *************************
  Minimum Time Step           :     1.38 sec
  Average Time Step           :    37.32 sec
  Maximum Time Step           :    60.00 sec
  % of Time in Steady State   :     0.00
  Average Iterations per Step :     2.07
  % of Steps Not Converging   :     0.26
  Time Step Frequencies       :
     60.000 - 23.031 sec      :    86.61 %
     23.031 -  8.841 sec      :    13.10 %
      8.841 -  3.393 sec      :     0.23 %
      3.393 -  1.303 sec      :     0.06 %
      1.303 -  0.500 sec      :     0.00 %
  
  
  ***************************
  Subcatchment Runoff Summary
  ***************************
  
  ------------------------------------------------------------------------------------------------------------------------------
                            Total      Total      Total      Total     Imperv       Perv      Total       Total     Peak  Runoff
                           Precip      Runon       Evap      Infil     Runoff     Runoff     Runoff      Runoff   Runoff   Coeff
  Subcatchment                 in         in         in         in         in         in         in    10^6 gal      CFS
  ------------------------------------------------------------------------------------------------------------------------------
  1                          2.65       0.00       0.00       1.16       1.33       0.17       1.50        0.41     4.66   0.566
  2                          2.65       0.00       0.00       1.23       1.32       0.10       1.41        0.38     4.47   0.534
  3                          2.65       0.00       0.00       1.45       1.32       6.56       7.88        1.07    20.84   2.975
  4                          2.65       0.00       0.00       1.86       1.32       5.89       7.21        0.98    19.64   2.721
  5                          2.65       0.00 -137084.61       1.24       1.31       0.09       1.40        0.57     6.56   0.528
  6                          2.65       0.00       0.00       0.00       0.26       1.91       2.17        0.71     2.94   0.819
  7                          2.65       0.00       0.00       2.74       0.27       0.03       0.29        0.03     0.43   0.111
  8                          2.65       0.00       0.00       3.12       0.26       1.49       1.76        0.48     3.46   0.662
  
  
  ****************************
  Subcatchment Washoff Summary
  ****************************
  
  ------------------------------------------------
                                 TSS          Lead
  Subcatchment                   lbs           lbs
  ------------------------------------------------
  1                           47.919         0.010
  2                           10.169         0.002
  3                            2.267         0.000
  4                            4.173         0.001
  5                            8.259         0.002
  6                            6.123         0.001
  7                            1.940         0.000
  8                            3.541         0.001
  ------------------------------------------------
  System                      84.391         0.017
  
  
  ******************
  Node Depth Summary
  ******************
  
  ---------------------------------------------------------------------------------
                                 Average  Maximum  Maximum  Time of Max    Reported
                                   Depth    Depth      HGL   Occurrence   Max Depth
  Node                 Type         Feet     Feet     Feet  days hr:min        Feet
  ---------------------------------------------------------------------------------
  9                    JUNCTION     2.81     3.00  1003.00     0  01:16        3.00
  10                   JUNCTION     0.33     3.00   998.00     0  00:00        2.03
  13                   JUNCTION     0.32     3.00   998.00     0  00:00        3.00
  14                   JUNCTION     3.00     3.00   993.00     0  00:00        3.00
  15                   JUNCTION     1.06     1.92   988.92     0  04:00        1.92
  16                   JUNCTION     2.98     3.00   988.00     0  00:13        3.00
  17                   JUNCTION     0.20     0.40   980.40     0  05:01        0.40
  19                   JUNCTION     0.04     0.17  1010.17     0  04:00        0.17
  20                   JUNCTION     0.03     0.13  1005.13     0  04:00        0.13
  21                   JUNCTION     2.99     3.00   993.00     0  00:04        3.00
  22                   JUNCTION     1.02     2.33   989.33     0  01:01        2.29
  23                   JUNCTION     0.24     0.53   990.53     0  05:00        0.53
  24                   JUNCTION     0.21     0.43   984.43     0  05:01        0.43
  18                   OUTFALL      0.20     0.40   975.40     0  05:01        0.40
  
  
  *******************
  Node Inflow Summary
  *******************
  
  -------------------------------------------------------------------------------------------------
                                  Maximum  Maximum                  Lateral       Total        Flow
                                  Lateral    Total  Time of Max      Inflow      Inflow     Balance
                                   Inflow   Inflow   Occurrence      Volume      Volume       Error
  Node                 Type           CFS      CFS  days hr:min    10^6 gal    10^6 gal     Percent
  -------------------------------------------------------------------------------------------------
  9                    JUNCTION      4.66     4.66     0  04:00       0.408       0.408       0.675
  10                   JUNCTION  35796.00 35796.00     0  00:00         488         488      -0.472
  13                   JUNCTION    280.30   280.30     0  00:00        4.68        4.68      -0.440
  14                   JUNCTION      0.00    16.60     0  00:00           0       0.983       0.365
  15                   JUNCTION      6.56     6.56     0  04:00        0.57       0.579       0.708
  16                   JUNCTION      0.00    19.52     0  01:01           0        1.35       0.648
  17                   JUNCTION      0.00     2.94     0  05:01    6.56e-06       0.705       0.045
  19                   JUNCTION      0.43     0.43     0  04:00       0.035       0.035       0.023
  20                   JUNCTION      0.00     0.43     0  04:00           0       0.035       0.009
  21                   JUNCTION      0.00     5.98     0  00:01           0       0.564       1.550
  22                   JUNCTION     19.64    19.64     0  01:00       0.781       0.781       0.217
  23                   JUNCTION      2.94     2.94     0  05:00       0.706       0.706       0.034
  24                   JUNCTION      0.00     2.94     0  05:00           0       0.706       0.043
  18                   OUTFALL   35796.00 35796.00     0  00:00         488         489       0.000
  
  
  **********************
  Node Surcharge Summary
  **********************
  
  Surcharging occurs when water rises above the top of the highest conduit.
  ---------------------------------------------------------------------
                                               Max. Height   Min. Depth
                                   Hours       Above Crown    Below Rim
  Node                 Type      Surcharged           Feet         Feet
  ---------------------------------------------------------------------
  9                    JUNCTION       34.73          1.500        0.000
  10                   JUNCTION        1.06          1.500        0.000
  13                   JUNCTION        1.24          1.500        0.000
  14                   JUNCTION       35.99          1.500        0.000
  15                   JUNCTION        1.01          0.425        1.075
  16                   JUNCTION       35.81          1.000        0.000
  21                   JUNCTION       35.94          0.000        0.000
  
  
  *********************
  Node Flooding Summary
  *********************
  
  Flooding refers to all water that overflows a node, whether it ponds or not.
  --------------------------------------------------------------------------
                                                             Total   Maximum
                                 Maximum   Time of Max       Flood    Ponded
                        Hours       Rate    Occurrence      Volume     Depth
  Node                 Flooded       CFS   days hr:min    10^6 gal      Feet
  --------------------------------------------------------------------------
  9                      29.34      4.65      0  04:00       0.405     0.000
  10                      0.99  35792.18      0  00:00     487.247     0.000
  13                      1.16    265.68      0  00:00       3.697     0.000
  14                     22.74     16.47      0  00:00       0.979     0.000
  16                     35.78     19.25      0  01:01       1.336     0.000
  21                     31.98      5.48      0  00:04       0.555     0.000
  
  
  ***********************
  Outfall Loading Summary
  ***********************
  
  ---------------------------------------------------------------------------------------
                         Flow       Avg       Max       Total         Total         Total
                         Freq      Flow      Flow      Volume           TSS          Lead
  Outfall Node           Pcnt       CFS       CFS    10^6 gal           lbs           lbs
  ---------------------------------------------------------------------------------------
  18                   100.00    927.06  35796.00     488.711       234.383         0.002
  ---------------------------------------------------------------------------------------
  System               100.00    927.06  35796.00     488.711       234.383         0.002
  
  
  ********************
  Link Flow Summary
  ********************
  
  -----------------------------------------------------------------------------
                                 Maximum  Time of Max   Maximum    Max/    Max/
                                  |Flow|   Occurrence   |Veloc|    Full    Full
  Link                 Type          CFS  days hr:min    ft/sec    Flow   Depth
  -----------------------------------------------------------------------------
  1                    CONDUIT      0.00     0  00:00      0.00    0.00    1.00
  4                    CONDUIT      0.43     0  04:00      6.03    0.06    0.15
  5                    CONDUIT      0.43     0  04:00      0.95    0.03    0.56
  6                    CONDUIT      5.79     0  00:01      7.43    1.25    1.00
  7                    CONDUIT      0.00     0  00:00      0.00    0.00    0.83
  8                    CONDUIT     19.52     0  01:01      6.21    0.81    1.00
  10                   CONDUIT      2.94     0  05:01      6.48    0.09    0.20
  11                   CONDUIT     16.60     0  00:00     16.02    1.09    1.00
  12                   CONDUIT      0.00     0  00:00      0.00    0.00    1.00
  13                   CONDUIT      6.56     0  04:00      3.71    0.68    1.00
  14                   CONDUIT      2.94     0  05:00      7.91    0.52    0.48
  15                   CONDUIT      0.00     0  00:00      0.00    0.00    0.61
  16                   CONDUIT      2.94     0  05:01     13.17    0.10    0.21
  
  
  ***************************
  Flow Classification Summary
  ***************************
  
  -------------------------------------------------------------------------------------
                      Adjusted    ---------- Fraction of Time in Flow Class ---------- 
                       /Actual         Up    Down  Sub   Sup   Up    Down  Norm  Inlet 
  Conduit               Length    Dry  Dry   Dry   Crit  Crit  Crit  Crit  Ltd   Ctrl  
  -------------------------------------------------------------------------------------
  1                       1.00   0.00  0.00  0.00  1.00  0.00  0.00  0.00  0.00  0.00
  4                       1.00   0.04  0.03  0.00  0.61  0.33  0.00  0.00  0.09  0.00
  5                       1.00   0.00  0.51  0.00  0.49  0.00  0.00  0.00  1.00  0.00
  6                       1.00   0.00  0.00  0.00  1.00  0.00  0.00  0.00  0.94  0.00
  7                       1.00   0.00  0.00  0.00  0.20  0.00  0.00  0.80  0.00  0.00
  8                       1.00   0.00  0.00  0.00  1.00  0.00  0.00  0.00  0.00  0.00
  10                      1.00   0.00  0.00  0.00  0.01  0.99  0.00  0.00  0.31  0.00
  11                      1.00   0.00  0.00  0.00  1.00  0.00  0.00  0.00  0.96  0.00
  12                      1.00   0.00  0.00  0.00  1.00  0.00  0.00  0.00  0.00  0.00
  13                      1.00   0.00  0.00  0.00  1.00  0.00  0.00  0.00  0.01  0.00
  14                      1.00   0.00  0.03  0.00  0.00  0.97  0.00  0.00  0.00  0.00
  15                      1.00   0.00  0.00  0.00  1.00  0.00  0.00  0.00  0.00  0.00
  16                      1.00   0.00  0.00  0.00  0.03  0.97  0.00  0.00  0.03  0.00
  
  
  *************************
  Conduit Surcharge Summary
  *************************
  
  ----------------------------------------------------------------------------
                                                           Hours        Hours 
                         --------- Hours Full --------   Above Full   Capacity
  Conduit                Both Ends  Upstream  Dnstream   Normal Flow   Limited
  ----------------------------------------------------------------------------
  5                           0.01      0.01     35.99      0.01         0.01
  6                           1.30      1.33     35.97      1.00         0.96
  8                           0.17      0.17     35.81      0.01         0.01
  11                          1.23      1.24     35.99      0.04         0.01
  13                          1.01      1.01     35.83      0.01         0.01
  
  
  ***************************
  Link Pollutant Load Summary
  ***************************
  
  ------------------------------------------------
                                 TSS          Lead
  Link                           lbs           lbs
  ------------------------------------------------
  1                            0.000         0.000
  4                            3.944         0.001
  5                            4.117         0.001
  6                            9.991         0.002
  7                            0.000         0.000
  8                            3.521         0.001
  10                           6.108         0.001
  11                           2.121         0.000
  12                           0.000         0.000
  13                           8.033         0.002
  14                           6.113         0.001
  15                           0.000         0.000
  16                           6.110         0.001
  

  Analysis begun on:  Tue Jun 23 20:57:59 2026
  Analysis ended on:  Tue Jun 23 20:57:59 2026
  Total elapsed time: < 1 sec