
  EPA STORM WATER MANAGEMENT MODEL - VERSION 5.2 (Build 5.2.4)
  ------------------------------------------------------------

    Input and Output FilesSW 1 0 20 
    Input and Output FilesSW 1 0 20 
  
  ERROR 337: cannot open climate file C:\Documents and Settings\Robert E Dickinson\Desktop\WU_Temperature.dat.
  WARNING 03: negative offset ignored for Link ORIFICE1
  WARNING 03: negative offset ignored for Link Orifice2

  Analysis begun on:  Tue Jun 23 20:41:21 2026
  Analysis ended on:  Tue Jun 23 20:41:21 2026
  Total elapsed time: < 1 sec