
  EPA STORM WATER MANAGEMENT MODEL - VERSION 5.2 (Build 5.2.4)
  ------------------------------------------------------------

  WARNING 08: elevation drop exceeds length for Conduit 42002006-42002001
  WARNING 04: minimum elevation drop used for Conduit 46104005-46104016
  WARNING 04: minimum elevation drop used for Conduit 51101002-46704012
  WARNING 04: minimum elevation drop used for Conduit 40903029-40903020
  WARNING 04: minimum elevation drop used for Conduit 40913034-40913039
  WARNING 04: minimum elevation drop used for Conduit 46814020-46903027
  WARNING 04: minimum elevation drop used for Conduit 47107019-47107011
  WARNING 04: minimum elevation drop used for Conduit 47502028-47502008
  WARNING 04: minimum elevation drop used for Conduit 47606035-47606027
  WARNING 04: minimum elevation drop used for Conduit 47901003-47901022
  WARNING 04: minimum elevation drop used for Conduit 47901024-47901022
  WARNING 04: minimum elevation drop used for Conduit 47601045-47601049
  WARNING 04: minimum elevation drop used for Conduit 40609046-40609021
  WARNING 04: minimum elevation drop used for Conduit 40502039-40502040
  WARNING 04: minimum elevation drop used for Conduit 40510008-40510009
  WARNING 08: elevation drop exceeds length for Conduit 40510022-40507036
  WARNING 04: minimum elevation drop used for Conduit 45302009-45302031
  WARNING 04: minimum elevation drop used for Conduit 45505002-45505001
  WARNING 04: minimum elevation drop used for Conduit 45511007-45511016
  WARNING 04: minimum elevation drop used for Conduit 45709041-45709035
  WARNING 04: minimum elevation drop used for Conduit 52409003-52409008
  WARNING 04: minimum elevation drop used for Conduit 52409010-52409003
  WARNING 08: elevation drop exceeds length for Conduit 52409008-52409011
  WARNING 10: crest elevation raised to downstream invert for regulator Link ORIFICE@45303028-45303011
  WARNING 02: maximum depth increased for Node 52916005
  
  ****************
  Analysis Options
  ****************
  Flow Units ............... CFS
  Process Models:
    Rainfall/Runoff ........ YES
    RDII ................... YES
    Snowmelt ............... NO
    Groundwater ............ NO
    Flow Routing ........... YES
    Ponding Allowed ........ NO
    Water Quality .......... NO
  Infiltration Method ...... HORTON
  Flow Routing Method ...... DYNWAVE
  Surcharge Method ......... EXTRAN
  Starting Date ............ 07/01/2003 00:00:00
  Ending Date .............. 07/01/2003 02:00:00
  Antecedent Dry Days ...... 0.0
  Report Time Step ......... 00:01:00
  Wet Time Step ............ 00:15:00
  Dry Time Step ............ 00:15:00
  Routing Time Step ........ 60.00 sec
  Variable Time Step ....... YES
  Maximum Trials ........... 8
  Number of Threads ........ 1
  Head Tolerance ........... 0.005000 ft
  
  
  **********************           Volume        Volume
  Rainfall Dependent I/I        acre-feet      10^6 gal
  **********************        ---------     ---------
  Sewershed Rainfall ......       119.197        38.842
  RDII Produced ...........         0.705         0.230
  RDII Ratio ..............         0.006
  
  
  **************************        Volume         Depth
  Runoff Quantity Continuity     acre-feet        inches
  **************************     ---------       -------
  Total Precipitation ......        54.818         0.080
  Evaporation Loss .........         0.000         0.000
  Infiltration Loss ........        33.450         0.049
  Surface Runoff ...........         4.333         0.006
  Final Storage ............        17.471         0.025
  Continuity Error (%) .....        -0.796
  
  
  **************************        Volume        Volume
  Flow Routing Continuity        acre-feet      10^6 gal
  **************************     ---------     ---------
  Dry Weather Inflow .......        10.380         3.383
  Wet Weather Inflow .......         3.877         1.263
  Groundwater Inflow .......         0.000         0.000
  RDII Inflow ..............         0.495         0.161
  External Inflow ..........         0.000         0.000
  External Outflow .........         0.681         0.222
  Flooding Loss ............         3.535         1.152
  Evaporation Loss .........         0.000         0.000
  Exfiltration Loss ........         0.000         0.000
  Initial Stored Volume ....         0.000         0.000
  Final Stored Volume ......         6.084         1.983
  Continuity Error (%) .....        30.184
  
  
  *************************
  Highest Continuity Errors
  *************************
  Node 42402024 (100.00%)
  Node 45115008 (100.00%)
  Node 45215003 (100.00%)
  Node 46813008 (100.00%)
  Node 47005016 (100.00%)
  
  
  ***************************
  Time-Step Critical Elements
  ***************************
  Link 41903002-41903001 (17.10%)
  Node 45504014A (9.03%)
  Link 45306004-45306003 (4.19%)
  Link 45312017-45312016 (4.11%)
  Link 47413021-47413020 (3.79%)
  
  
  ********************************
  Highest Flow Instability Indexes
  ********************************
  Link ORIFICE@45703001-BchGate (96)
  Link ORIFICE@45504014A-45613004 (89)
  Link ORIFICE@40505016-40505007 (88)
  Link ORIFICE@42706010-42706011 (87)
  Link ORIFICE1@45504014A-45504014B (87)
  
  
  *********************************
  Most Frequent Nonconverging Nodes
  *********************************
  Node 56101028 (95.16%)
  Node 41005008 (95.16%)
  Node 40909006 (95.16%)
  Node 40903019 (95.16%)
  Node 1000 (95.16%)
  
  
  *************************
  Routing Time Step Summary
  *************************
  Minimum Time Step           :     0.48 sec
  Average Time Step           :     5.81 sec
  Maximum Time Step           :    29.31 sec
  % of Time in Steady State   :     0.00
  Average Iterations per Step :     7.84
  % of Steps Not Converging   :    95.16
  Time Step Frequencies       :
     60.000 -  6.645 sec      :    25.67 %
      6.645 -  0.736 sec      :    74.17 %
      0.736 -  0.082 sec      :     0.16 %
      0.082 -  0.009 sec      :     0.00 %
      0.009 -  0.001 sec      :     0.00 %
  
  
  ***************************
  Subcatchment Runoff Summary
  ***************************
  
  ------------------------------------------------------------------------------------------------------------------------------
                            Total      Total      Total      Total     Imperv       Perv      Total       Total     Peak  Runoff
                           Precip      Runon       Evap      Infil     Runoff     Runoff     Runoff      Runoff   Runoff   Coeff
  Subcatchment                 in         in         in         in         in         in         in    10^6 gal      CFS
  ------------------------------------------------------------------------------------------------------------------------------
  LMDN008CC0001              0.08       0.00       0.00       0.06       0.00       0.00       0.00        0.00     0.00   0.051
  LMDN008CC0002              0.08       0.00       0.00       0.06       0.00       0.00       0.00        0.00     0.00   0.055
  LMDN008CC0003              0.08       0.00       0.00       0.05       0.01       0.00       0.01        0.00     0.01   0.078
  LMDN008CC0004              0.08       0.00       0.00       0.05       0.01       0.00       0.01        0.00     0.01   0.069
  LMDN008CC0005              0.08       0.00       0.00       0.06       0.00       0.00       0.00        0.00     0.00   0.053
  LMDN008CC0006              0.08       0.00       0.00       0.06       0.00       0.00       0.00        0.00     0.00   0.060
  LMDN008CC0007              0.08       0.00       0.00       0.06       0.00       0.00       0.00        0.00     0.00   0.050
  LMDN008CC0008              0.08       0.00       0.00       0.06       0.00       0.00       0.00        0.00     0.01   0.048
  LMDN008CC0009              0.08       0.00       0.00       0.06       0.00       0.00       0.00        0.00     0.00   0.046
  LMDN008CC0010              0.08       0.00       0.00       0.06       0.00       0.00       0.00        0.00     0.01   0.049
  LMDN008CC0011              0.08       0.00       0.00       0.06       0.00       0.00       0.00        0.00     0.01   0.047
  LMDN008CC0012              0.08       0.00       0.00       0.06       0.00       0.00       0.00        0.00     0.01   0.061
  LMDN008CC0013              0.08       0.00       0.00       0.05       0.01       0.00       0.01        0.00     0.01   0.095
  LMDN008CC0014              0.08       0.00       0.00       0.05       0.01       0.00       0.01        0.00     0.01   0.074
  LMDN008CC0015              0.08       0.00       0.00       0.06       0.00       0.00       0.00        0.00     0.00   0.048
  LMDN008CC0016              0.08       0.00       0.00       0.06       0.00       0.00       0.00        0.00     0.00   0.057
  LMDN008CC0017              0.08       0.00       0.00       0.06       0.00       0.00       0.00        0.00     0.01   0.058
  LMDN008CC0018              0.08       0.00       0.00       0.06       0.00       0.00       0.00        0.00     0.00   0.059
  LMDN008CC0019              0.08       0.00       0.00       0.06       0.01       0.00       0.01        0.00     0.00   0.063
  LMDN008CC0020              0.08       0.00       0.00       0.06       0.00       0.00       0.00        0.00     0.00   0.053
  LMDN008CC0021              0.08       0.00       0.00       0.06       0.00       0.00       0.00        0.00     0.01   0.059
  LMDN008CC0022              0.08       0.00       0.00       0.06       0.01       0.00       0.01        0.00     0.00   0.066
  LMDN008CC0023              0.08       0.00       0.00       0.06       0.00       0.00       0.00        0.00     0.00   0.053
  LMDN008CC0024              0.08       0.00       0.00       0.06       0.00       0.00       0.00        0.00     0.01   0.058
  LMDN008CC0025              0.08       0.00       0.00       0.06       0.01       0.00       0.01        0.00     0.01   0.068
  LMDN008CC0026              0.08       0.00       0.00       0.06       0.00       0.00       0.00        0.00     0.00   0.047
  LMDN008CC0027              0.08       0.00       0.00       0.06       0.00       0.00       0.00        0.00     0.00   0.059
  LMDN008CC0028              0.08       0.00       0.00       0.06       0.00       0.00       0.00        0.00     0.01   0.058
  LMDN008CC0029              0.08       0.00       0.00       0.06       0.00       0.00       0.00        0.00     0.01   0.054
  LMDN008CC0030              0.08       0.00       0.00       0.06       0.01       0.00       0.01        0.00     0.00   0.063
  LMDN008CC0031              0.08       0.00       0.00       0.06       0.00       0.00       0.00        0.00     0.01   0.053
  LMDN008CC0032              0.08       0.00       0.00       0.06       0.00       0.00       0.00        0.00     0.00   0.061
  LMDN008CC0033              0.08       0.00       0.00       0.06       0.00       0.00       0.00        0.00     0.00   0.056
  LMDN008CC0034              0.08       0.00       0.00       0.05       0.01       0.00       0.01        0.00     0.00   0.072
  LMDN008CC0035              0.08       0.00       0.00       0.06       0.01       0.00       0.01        0.00     0.00   0.071
  LMDN008CC0036              0.08       0.00       0.00       0.06       0.01       0.00       0.01        0.00     0.01   0.065
  LMDN008CC0037              0.08       0.00       0.00       0.06       0.00       0.00       0.00        0.00     0.00   0.062
  LMDN008CC0038              0.08       0.00       0.00       0.06       0.00       0.00       0.00        0.00     0.00   0.049
  LMDN008CC0039              0.08       0.00       0.00       0.06       0.00       0.00       0.00        0.00     0.00   0.053
  LMDN008CC0040              0.08       0.00       0.00       0.06       0.00       0.00       0.00        0.00     0.00   0.055
  LMDN008CC0041              0.08       0.00       0.00       0.05       0.01       0.00       0.01        0.00     0.00   0.103
  LMDN008CC0042              0.08       0.00       0.00       0.06       0.01       0.00       0.01        0.00     0.00   0.072
  LMDN008CC0043              0.08       0.00       0.00       0.06       0.00       0.00       0.00        0.00     0.01   0.059
  LMDN008CC0044              0.08       0.00       0.00       0.06       0.00       0.00       0.00        0.00     0.01   0.050
  LMDN008CC0045              0.08       0.00       0.00       0.06       0.00       0.00       0.00        0.00     0.02   0.061
  LMDN008CC0046              0.08       0.00       0.00       0.06       0.00       0.00       0.00        0.00     0.01   0.055
  LMDN008CC0047              0.08       0.00       0.00       0.06       0.00       0.00       0.00        0.00     0.01   0.062
  LMDN008CC0048              0.08       0.00       0.00       0.06       0.00       0.00       0.00        0.00     0.01   0.059
  LMDN008CC0049              0.08       0.00       0.00       0.05       0.01       0.00       0.01        0.00     0.01   0.084
  LMDN008CC0050              0.08       0.00       0.00       0.04       0.01       0.00       0.01        0.00     0.05   0.075
  LMDN008CC0051              0.08       0.00       0.00       0.06       0.00       0.00       0.00        0.00     0.01   0.050
  LMDN008CC0052              0.08       0.00       0.00       0.06       0.00       0.00       0.00        0.00     0.01   0.051
  LMDN008CC0053              0.08       0.00       0.00       0.06       0.00       0.00       0.00        0.00     0.00   0.051
  LMDN008CC0054              0.08       0.00       0.00       0.06       0.00       0.00       0.00        0.00     0.00   0.050
  LMDN008CC0055              0.08       0.00       0.00       0.06       0.00       0.00       0.00        0.00     0.00   0.052
  LMDN008CC0056              0.08       0.00       0.00       0.06       0.00       0.00       0.00        0.00     0.00   0.052
  LMDN008CC0057              0.08       0.00       0.00       0.06       0.00       0.00       0.00        0.00     0.00   0.047
  LMDN008CC0058              0.08       0.00       0.00       0.06       0.00       0.00       0.00        0.00     0.00   0.052
  LMDN008CC0059              0.08       0.00       0.00       0.06       0.00       0.00       0.00        0.00     0.00   0.051
  LMDN008CC0060              0.08       0.00       0.00       0.06       0.00       0.00       0.00        0.00     0.00   0.050
  LMDN008CC0061              0.08       0.00       0.00       0.06       0.00       0.00       0.00        0.00     0.00   0.052
  LMDN008CC0062              0.08       0.00       0.00       0.06       0.00       0.00       0.00        0.00     0.00   0.051
  LMDN008CC0063              0.08       0.00       0.00       0.06       0.01       0.00       0.01        0.00     0.00   0.069
  LMDN008CC0064              0.08       0.00       0.00       0.06       0.00       0.00       0.00        0.00     0.00   0.049
  LMDN008CC0065              0.08       0.00       0.00       0.06       0.00       0.00       0.00        0.00     0.01   0.046
  LMDN008CC0066              0.08       0.00       0.00       0.06       0.00       0.00       0.00        0.00     0.00   0.062
  LMDN008CC0067              0.08       0.00       0.00       0.06       0.00       0.00       0.00        0.00     0.00   0.057
  LMDN008CC0068              0.08       0.00       0.00       0.06       0.00       0.00       0.00        0.00     0.00   0.054
  LMDN008CC0069              0.08       0.00       0.00       0.05       0.01       0.00       0.01        0.00     0.00   0.073
  LMDN008CC0070              0.08       0.00       0.00       0.06       0.00       0.00       0.00        0.00     0.00   0.044
  LMDN008CC0071              0.08       0.00       0.00       0.06       0.00       0.00       0.00        0.00     0.00   0.048
  LMDN008CC0072              0.08       0.00       0.00       0.06       0.00       0.00       0.00        0.00     0.00   0.052
  LMDN008CC0073              0.08       0.00       0.00       0.06       0.01       0.00       0.01        0.00     0.00   0.064
  LMDN008CC0074              0.08       0.00       0.00       0.06       0.00       0.00       0.00        0.00     0.01   0.049
  LMDN008CC0075              0.08       0.00       0.00       0.06       0.00       0.00       0.00        0.00     0.00   0.046
  LMDN008CC0076              0.08       0.00       0.00       0.06       0.00       0.00       0.00        0.00     0.00   0.050
  LMDN008CC0077              0.08       0.00       0.00       0.06       0.00       0.00       0.00        0.00     0.00   0.047
  LMDN008CC0078              0.08       0.00       0.00       0.06       0.01       0.00       0.01        0.00     0.00   0.066
  LMDN008CC0079              0.08       0.00       0.00       0.06       0.00       0.00       0.00        0.00     0.01   0.046
  LMDN008CC0080              0.08       0.00       0.00       0.06       0.00       0.00       0.00        0.00     0.00   0.046
  LMDN008CC0081              0.08       0.00       0.00       0.06       0.00       0.00       0.00        0.00     0.00   0.054
  LMDN008CC0082              0.08       0.00       0.00       0.06       0.00       0.00       0.00        0.00     0.01   0.062
  LMDN008CC0083              0.08       0.00       0.00       0.06       0.00       0.00       0.00        0.00     0.00   0.039
  LMDN008CC0084              0.08       0.00       0.00       0.06       0.00       0.00       0.00        0.00     0.00   0.052
  LMDN008CC0085              0.08       0.00       0.00       0.06       0.00       0.00       0.00        0.00     0.00   0.050
  LMDN008CC0086              0.08       0.00       0.00       0.06       0.00       0.00       0.00        0.00     0.00   0.056
  LMDN008CC0087              0.08       0.00       0.00       0.06       0.00       0.00       0.00        0.00     0.01   0.056
  LMDN008CC0088              0.08       0.00       0.00       0.06       0.00       0.00       0.00        0.00     0.00   0.051
  LMDN008CC0089              0.08       0.00       0.00       0.06       0.00       0.00       0.00        0.00     0.00   0.056
  LMDN008CC0090              0.08       0.00       0.00       0.06       0.01       0.00       0.01        0.00     0.00   0.068
  LMDN008CC0091              0.08       0.00       0.00       0.06       0.00       0.00       0.00        0.00     0.00   0.056
  LMDN008CC0092              0.08       0.00       0.00       0.06       0.00       0.00       0.00        0.00     0.00   0.058
  LMDN008CC0093              0.08       0.00       0.00       0.05       0.01       0.00       0.01        0.00     0.01   0.071
  LMDN008CC0094              0.08       0.00       0.00       0.04       0.01       0.00       0.01        0.00     0.02   0.104
  LMDN008CC0095              0.08       0.00       0.00       0.05       0.01       0.00       0.01        0.00     0.03   0.103
  LMDN008CC0096              0.08       0.00       0.00       0.05       0.01       0.00       0.01        0.00     0.02   0.065
  LMDN008CC0097              0.08       0.00       0.00       0.05       0.01       0.00       0.01        0.00     0.01   0.068
  LMDN008CC0098              0.08       0.00       0.00       0.05       0.01       0.00       0.01        0.00     0.01   0.082
  LMDN008CC0099              0.08       0.00       0.00       0.06       0.00       0.00       0.00        0.00     0.01   0.051
  LMDN008CC0100              0.08       0.00       0.00       0.06       0.01       0.00       0.01        0.00     0.01   0.065
  LMDN008CC0101              0.08       0.00       0.00       0.06       0.00       0.00       0.00        0.00     0.00   0.053
  LMDN008CC0102              0.08       0.00       0.00       0.05       0.00       0.00       0.00        0.00     0.04   0.048
  LMDN008CC0103              0.08       0.00       0.00       0.04       0.01       0.00       0.01        0.00     0.01   0.087
  LMDN008CC0104              0.08       0.00       0.00       0.05       0.01       0.00       0.01        0.00     0.01   0.084
  LMDN008CC0105              0.08       0.00       0.00       0.06       0.00       0.00       0.00        0.00     0.01   0.046
  LMDN008CC0106              0.08       0.00       0.00       0.06       0.01       0.00       0.01        0.00     0.00   0.063
  LMDN008CC0107              0.08       0.00       0.00       0.06       0.00       0.00       0.00        0.00     0.01   0.039
  LMDN008CC0108              0.08       0.00       0.00       0.06       0.00       0.00       0.00        0.00     0.00   0.060
  LMDN008CC0109              0.08       0.00       0.00       0.06       0.00       0.00       0.00        0.00     0.02   0.038
  LMDN008CC0110              0.08       0.00       0.00       0.06       0.00       0.00       0.00        0.00     0.02   0.039
  LMDN008CC0111              0.08       0.00       0.00       0.05       0.00       0.00       0.00        0.00     0.04   0.056
  LMDN008CC0112              0.08       0.00       0.00       0.06       0.00       0.00       0.00        0.00     0.01   0.060
  LMDN008CC0113              0.08       0.00       0.00       0.05       0.00       0.00       0.00        0.00     0.01   0.054
  LMDN008CC0114              0.08       0.00       0.00       0.06       0.00       0.00       0.00        0.00     0.00   0.049
  LMDN008CC0115              0.08       0.00       0.00       0.06       0.00       0.00       0.00        0.00     0.03   0.044
  LMDN008CC0116              0.08       0.00       0.00       0.05       0.00       0.00       0.00        0.00     0.04   0.054
  LMDN008CC0117              0.08       0.00       0.00       0.05       0.00       0.00       0.00        0.00     0.03   0.062
  LMDN008CC0118              0.08       0.00       0.00       0.06       0.00       0.00       0.00        0.00     0.02   0.056
  LMDN008CC0119              0.08       0.00       0.00       0.05       0.01       0.00       0.01        0.00     0.01   0.084
  LMDN008CC0120              0.08       0.00       0.00       0.05       0.00       0.00       0.00        0.00     0.03   0.059
  LMDN008CC0121              0.08       0.00       0.00       0.05       0.00       0.00       0.00        0.00     0.03   0.048
  LMDN008CC0122              0.08       0.00       0.00       0.05       0.00       0.00       0.00        0.00     0.03   0.053
  LMDN008CC0123              0.08       0.00       0.00       0.05       0.00       0.00       0.00        0.00     0.04   0.055
  LMDN008CC0124              0.08       0.00       0.00       0.04       0.01       0.00       0.01        0.00     0.01   0.073
  LMDN008CC0125              0.08       0.00       0.00       0.05       0.01       0.00       0.01        0.00     0.01   0.083
  LMDN008CC0126              0.08       0.00       0.00       0.06       0.00       0.00       0.00        0.00     0.03   0.047
  LMDN008CC0127              0.08       0.00       0.00       0.05       0.01       0.00       0.01        0.00     0.02   0.086
  LMDN008CC0128              0.08       0.00       0.00       0.06       0.00       0.00       0.00        0.00     0.00   0.047
  LMDN008CC0129              0.08       0.00       0.00       0.04       0.01       0.00       0.01        0.00     0.01   0.120
  LMDN008CC0130              0.08       0.00       0.00       0.04       0.01       0.00       0.01        0.00     0.00   0.109
  LMDN008CC0131              0.08       0.00       0.00       0.06       0.00       0.00       0.00        0.00     0.01   0.061
  LMDN008CC0132              0.08       0.00       0.00       0.05       0.01       0.00       0.01        0.00     0.02   0.065
  LMDN008CC0133              0.08       0.00       0.00       0.06       0.00       0.00       0.00        0.00     0.01   0.061
  LMDN008CC0134              0.08       0.00       0.00       0.06       0.00       0.00       0.00        0.00     0.02   0.050
  LMDN008CC0135              0.08       0.00       0.00       0.06       0.00       0.00       0.00        0.00     0.01   0.056
  LMDN008CC0136              0.08       0.00       0.00       0.05       0.01       0.00       0.01        0.00     0.00   0.077
  LMDN008CC0137              0.08       0.00       0.00       0.06       0.00       0.00       0.00        0.00     0.01   0.041
  LMDN008CC0138              0.08       0.00       0.00       0.06       0.00       0.00       0.00        0.00     0.04   0.033
  LMDN008CC0139              0.08       0.00       0.00       0.06       0.00       0.00       0.00        0.00     0.02   0.046
  LMDN008CC0140              0.08       0.00       0.00       0.06       0.00       0.00       0.00        0.00     0.01   0.049
  LMDN008CC0141              0.08       0.00       0.00       0.06       0.00       0.00       0.00        0.00     0.02   0.040
  LMDN008CC0142              0.08       0.00       0.00       0.06       0.00       0.00       0.00        0.00     0.02   0.049
  LMDN008CC0143              0.08       0.00       0.00       0.05       0.01       0.00       0.01        0.00     0.01   0.064
  LMDN008CC0144              0.08       0.00       0.00       0.05       0.00       0.00       0.00        0.00     0.04   0.044
  LMDN008CC0145              0.08       0.00       0.00       0.05       0.00       0.00       0.00        0.00     0.01   0.060
  LMDN008CC0146              0.08       0.00       0.00       0.06       0.00       0.00       0.00        0.00     0.01   0.056
  LMDN008CC0147              0.08       0.00       0.00       0.06       0.00       0.00       0.00        0.00     0.01   0.052
  LMDN008CC0148              0.08       0.00       0.00       0.06       0.00       0.00       0.00        0.00     0.01   0.051
  LMDN008CC0149              0.08       0.00       0.00       0.06       0.01       0.00       0.01        0.00     0.01   0.065
  LMDN008CC0150              0.08       0.00       0.00       0.05       0.01       0.00       0.01        0.00     0.01   0.070
  LMDN008CC0151              0.08       0.00       0.00       0.05       0.01       0.00       0.01        0.00     0.01   0.079
  LMDN008CC0152              0.08       0.00       0.00       0.06       0.00       0.00       0.00        0.00     0.00   0.061
  LMDN008CC0153              0.08       0.00       0.00       0.06       0.00       0.00       0.00        0.00     0.01   0.055
  LMDN008CC0154              0.08       0.00       0.00       0.06       0.00       0.00       0.00        0.00     0.01   0.042
  LMDN008CC0155              0.08       0.00       0.00       0.06       0.00       0.00       0.00        0.00     0.00   0.043
  LMDN008CC0156              0.08       0.00       0.00       0.05       0.00       0.00       0.00        0.00     0.06   0.055
  LMDN008CC0157              0.08       0.00       0.00       0.06       0.00       0.00       0.00        0.00     0.01   0.041
  LMDN008CC0158              0.08       0.00       0.00       0.06       0.00       0.00       0.00        0.00     0.00   0.052
  LMDN008CC0159              0.08       0.00       0.00       0.06       0.00       0.00       0.00        0.00     0.00   0.045
  LMDN008CC0160              0.08       0.00       0.00       0.06       0.00       0.00       0.00        0.00     0.01   0.042
  LMDN008CC0161              0.08       0.00       0.00       0.06       0.00       0.00       0.00        0.00     0.00   0.050
  LMDN008CC0162              0.08       0.00       0.00       0.06       0.00       0.00       0.00        0.00     0.00   0.044
  LMDN008CC0163              0.08       0.00       0.00       0.06       0.00       0.00       0.00        0.00     0.00   0.047
  LMDN008CC0164              0.08       0.00       0.00       0.06       0.00       0.00       0.00        0.00     0.01   0.044
  LMDN008CC0165              0.08       0.00       0.00       0.06       0.00       0.00       0.00        0.00     0.00   0.044
  LMDN008CC0166              0.08       0.00       0.00       0.06       0.00       0.00       0.00        0.00     0.00   0.050
  LMDN008CC0167              0.08       0.00       0.00       0.06       0.00       0.00       0.00        0.00     0.00   0.047
  LMDN008CC0168              0.08       0.00       0.00       0.06       0.00       0.00       0.00        0.00     0.01   0.043
  LMDN008CC0169              0.08       0.00       0.00       0.06       0.00       0.00       0.00        0.00     0.00   0.044
  LMDN008CC0170              0.08       0.00       0.00       0.06       0.00       0.00       0.00        0.00     0.00   0.051
  LMDN008CC0171              0.08       0.00       0.00       0.06       0.00       0.00       0.00        0.00     0.00   0.051
  LMDN008CC0172              0.08       0.00       0.00       0.06       0.00       0.00       0.00        0.00     0.01   0.045
  LMDN008CC0173              0.08       0.00       0.00       0.06       0.00       0.00       0.00        0.00     0.00   0.048
  LMDN008CC0174              0.08       0.00       0.00       0.06       0.00       0.00       0.00        0.00     0.00   0.051
  LMDN008CC0175              0.08       0.00       0.00       0.06       0.00       0.00       0.00        0.00     0.01   0.046
  LMDN008CC0176              0.08       0.00       0.00       0.06       0.01       0.00       0.01        0.00     0.01   0.064
  LMDN008CC0177              0.08       0.00       0.00       0.06       0.00       0.00       0.00        0.00     0.01   0.049
  LMDN008CC0178              0.08       0.00       0.00       0.06       0.00       0.00       0.00        0.00     0.00   0.051
  LMDN008CC0179              0.08       0.00       0.00       0.06       0.00       0.00       0.00        0.00     0.00   0.049
  LMDN008CC0180              0.08       0.00       0.00       0.06       0.00       0.00       0.00        0.00     0.01   0.049
  LMDN008CC0181              0.08       0.00       0.00       0.06       0.00       0.00       0.00        0.00     0.00   0.050
  LMDN008CC0182              0.08       0.00       0.00       0.06       0.00       0.00       0.00        0.00     0.00   0.049
  LMDN008CC0183              0.08       0.00       0.00       0.06       0.00       0.00       0.00        0.00     0.01   0.047
  LMDN008CC0184              0.08       0.00       0.00       0.06       0.00       0.00       0.00        0.00     0.00   0.050
  LMDN008CC0185              0.08       0.00       0.00       0.06       0.00       0.00       0.00        0.00     0.01   0.051
  LMDN008CC0186              0.08       0.00       0.00       0.06       0.00       0.00       0.00        0.00     0.00   0.051
  LMDN008CC0187              0.08       0.00       0.00       0.06       0.00       0.00       0.00        0.00     0.00   0.046
  LMDN008CC0188              0.08       0.00       0.00       0.06       0.00       0.00       0.00        0.00     0.01   0.050
  LMDN008CC0189              0.08       0.00       0.00       0.06       0.00       0.00       0.00        0.00     0.01   0.042
  LMDN008CC0190              0.08       0.00       0.00       0.06       0.00       0.00       0.00        0.00     0.01   0.054
  LMDN008CC0191              0.08       0.00       0.00       0.06       0.00       0.00       0.00        0.00     0.00   0.052
  LMDN008CC0192              0.08       0.00       0.00       0.06       0.00       0.00       0.00        0.00     0.00   0.050
  LMDN008CC0193              0.08       0.00       0.00       0.06       0.00       0.00       0.00        0.00     0.00   0.046
  LMDN008CC0194              0.08       0.00       0.00       0.06       0.00       0.00       0.00        0.00     0.00   0.052
  LMDN008CC0195              0.08       0.00       0.00       0.06       0.00       0.00       0.00        0.00     0.00   0.052
  LMDN008CC0196              0.08       0.00       0.00       0.06       0.01       0.00       0.01        0.00     0.01   0.065
  LMDN008CC0197              0.08       0.00       0.00       0.06       0.00       0.00       0.00        0.00     0.01   0.050
  LMDN008CC0198              0.08       0.00       0.00       0.06       0.00       0.00       0.00        0.00     0.01   0.058
  LMDN008CC0199              0.08       0.00       0.00       0.04       0.01       0.00       0.01        0.00     0.01   0.108
  LMDN008CC0200              0.08       0.00       0.00       0.05       0.01       0.00       0.01        0.00     0.01   0.093
  LMDN008CC0201              0.08       0.00       0.00       0.07       0.00       0.00       0.00        0.00     0.00   0.040
  LMDN008CC0202              0.08       0.00       0.00       0.05       0.01       0.00       0.01        0.00     0.01   0.089
  LMDN008CC0203              0.08       0.00       0.00       0.06       0.00       0.00       0.00        0.00     0.00   0.045
  LMDN008CC0204              0.08       0.00       0.00       0.05       0.01       0.00       0.01        0.00     0.00   0.102
  LMDN008CC0205              0.08       0.00       0.00       0.06       0.00       0.00       0.00        0.00     0.01   0.051
  LMDN008CC0206              0.08       0.00       0.00       0.06       0.00       0.00       0.00        0.00     0.00   0.048
  LMDN008CC0207              0.08       0.00       0.00       0.06       0.00       0.00       0.00        0.00     0.01   0.043
  LMDN008CC0208              0.08       0.00       0.00       0.06       0.00       0.00       0.00        0.00     0.01   0.050
  LMDN008CC0209              0.08       0.00       0.00       0.06       0.00       0.00       0.00        0.00     0.01   0.034
  LMDN008CC0210              0.08       0.00       0.00       0.06       0.00       0.00       0.00        0.00     0.01   0.054
  LMDN008CC0211              0.08       0.00       0.00       0.06       0.00       0.00       0.00        0.00     0.01   0.044
  LMDN008CC0212              0.08       0.00       0.00       0.06       0.00       0.00       0.00        0.00     0.01   0.056
  LMDN008CC0213              0.08       0.00       0.00       0.06       0.00       0.00       0.00        0.00     0.01   0.051
  LMDN008CC0214              0.08       0.00       0.00       0.06       0.00       0.00       0.00        0.00     0.01   0.051
  LMDN008CC0215              0.08       0.00       0.00       0.06       0.00       0.00       0.00        0.00     0.01   0.048
  LMDN008CC0216              0.08       0.00       0.00       0.06       0.00       0.00       0.00        0.00     0.01   0.047
  LMDN008CC0217              0.08       0.00       0.00       0.06       0.00       0.00       0.00        0.00     0.00   0.049
  LMDN008CC0218              0.08       0.00       0.00       0.05       0.01       0.00       0.01        0.00     0.01   0.077
  LMDN008CC0219              0.08       0.00       0.00       0.04       0.01       0.00       0.01        0.00     0.01   0.113
  LMDN008CC0220              0.08       0.00       0.00       0.06       0.00       0.00       0.00        0.00     0.01   0.057
  LMDN008CC0221              0.08       0.00       0.00       0.06       0.01       0.00       0.01        0.00     0.00   0.067
  LMDN008CC0222              0.08       0.00       0.00       0.06       0.01       0.00       0.01        0.00     0.01   0.067
  LMDN008CC0223              0.08       0.00       0.00       0.06       0.00       0.00       0.00        0.00     0.01   0.061
  LMDN008CC0224              0.08       0.00       0.00       0.06       0.00       0.00       0.00        0.00     0.01   0.055
  LMDN008CC0225              0.08       0.00       0.00       0.05       0.01       0.00       0.01        0.00     0.01   0.093
  LMDN008CC0226              0.08       0.00       0.00       0.04       0.01       0.00       0.01        0.00     0.00   0.116
  LMDN008CC0227              0.08       0.00       0.00       0.06       0.00       0.00       0.00        0.00     0.00   0.058
  LMDN008CC0228              0.08       0.00       0.00       0.06       0.00       0.00       0.00        0.00     0.00   0.061
  LMDN008CC0229              0.08       0.00       0.00       0.06       0.00       0.00       0.00        0.00     0.00   0.062
  LMDN008CC0230              0.08       0.00       0.00       0.06       0.01       0.00       0.01        0.00     0.00   0.068
  LMDN008CC0231              0.08       0.00       0.00       0.06       0.00       0.00       0.00        0.00     0.00   0.059
  LMDN008CC0232              0.08       0.00       0.00       0.05       0.01       0.00       0.01        0.00     0.00   0.072
  LMDN008CC0233              0.08       0.00       0.00       0.05       0.01       0.00       0.01        0.00     0.01   0.072
  LMDN008CC0234              0.08       0.00       0.00       0.06       0.01       0.00       0.01        0.00     0.00   0.064
  LMDN008CC0235              0.08       0.00       0.00       0.06       0.00       0.00       0.00        0.00     0.00   0.059
  LMDN008CC0236              0.08       0.00       0.00       0.06       0.01       0.00       0.01        0.00     0.01   0.065
  LMDN008CC0237              0.08       0.00       0.00       0.06       0.00       0.00       0.00        0.00     0.00   0.055
  LMDN008CC0238              0.08       0.00       0.00       0.05       0.01       0.00       0.01        0.00     0.01   0.070
  LMDN008CC0239              0.08       0.00       0.00       0.05       0.01       0.00       0.01        0.00     0.01   0.074
  LMDN008CC0240              0.08       0.00       0.00       0.05       0.01       0.00       0.01        0.00     0.01   0.084
  LMDN008CC0241              0.08       0.00       0.00       0.06       0.00       0.00       0.00        0.00     0.01   0.056
  LMDN008CC0242              0.08       0.00       0.00       0.05       0.01       0.00       0.01        0.00     0.01   0.068
  LMDN008CC0243              0.08       0.00       0.00       0.06       0.00       0.00       0.00        0.00     0.00   0.057
  LMDN008CC0244              0.08       0.00       0.00       0.06       0.00       0.00       0.00        0.00     0.01   0.053
  LMDN008CC0245              0.08       0.00       0.00       0.06       0.00       0.00       0.00        0.00     0.01   0.059
  LMDN008CC0246              0.08       0.00       0.00       0.06       0.00       0.00       0.00        0.00     0.01   0.056
  LMDN008CC0247              0.08       0.00       0.00       0.06       0.00       0.00       0.00        0.00     0.00   0.050
  LMDN008CC0248              0.08       0.00       0.00       0.06       0.00       0.00       0.00        0.00     0.00   0.045
  LMDN008CC0249              0.08       0.00       0.00       0.06       0.00       0.00       0.00        0.00     0.00   0.062
  LMDN008CC0250              0.08       0.00       0.00       0.06       0.00       0.00       0.00        0.00     0.00   0.044
  LMDN008CC0251              0.08       0.00       0.00       0.06       0.00       0.00       0.00        0.00     0.00   0.051
  LMDN008CC0252              0.08       0.00       0.00       0.06       0.00       0.00       0.00        0.00     0.00   0.054
  LMDN008CC0253              0.08       0.00       0.00       0.06       0.00       0.00       0.00        0.00     0.01   0.040
  LMDN008CC0254              0.08       0.00       0.00       0.04       0.01       0.00       0.01        0.00     0.01   0.107
  LMDN008CC0255              0.08       0.00       0.00       0.06       0.00       0.00       0.00        0.00     0.00   0.049
  LMDN008CC0256              0.08       0.00       0.00       0.06       0.00       0.00       0.00        0.00     0.00   0.055
  LMDN008CC0257              0.08       0.00       0.00       0.06       0.00       0.00       0.00        0.00     0.00   0.055
  LMDN008CC0258              0.08       0.00       0.00       0.06       0.00       0.00       0.00        0.00     0.00   0.047
  LMDN008CC0259              0.08       0.00       0.00       0.06       0.00       0.00       0.00        0.00     0.01   0.041
  LMDN008CC0260              0.08       0.00       0.00       0.06       0.00       0.00       0.00        0.00     0.03   0.039
  LMDN008CC0261              0.08       0.00       0.00       0.06       0.00       0.00       0.00        0.00     0.00   0.046
  LMDN008CC0262              0.08       0.00       0.00       0.06       0.00       0.00       0.00        0.00     0.03   0.041
  LMDN008CC0263              0.08       0.00       0.00       0.06       0.00       0.00       0.00        0.00     0.00   0.044
  LMDN008CC0264              0.08       0.00       0.00       0.06       0.00       0.00       0.00        0.00     0.00   0.053
  LMDN008CC0265              0.08       0.00       0.00       0.06       0.00       0.00       0.00        0.00     0.01   0.051
  LMDN008CC0266              0.08       0.00       0.00       0.06       0.00       0.00       0.00        0.00     0.02   0.039
  LMDN008CC0267              0.08       0.00       0.00       0.06       0.01       0.00       0.01        0.00     0.01   0.065
  LMDN008CC0268              0.08       0.00       0.00       0.06       0.00       0.00       0.00        0.00     0.01   0.040
  LMDN008CC0269              0.08       0.00       0.00       0.06       0.00       0.00       0.00        0.00     0.03   0.050
  LMDN008CC0270              0.08       0.00       0.00       0.06       0.01       0.00       0.01        0.00     0.00   0.076
  LMDN008CC0271              0.08       0.00       0.00       0.06       0.00       0.00       0.00        0.00     0.01   0.062
  LMDN008CC0272              0.08       0.00       0.00       0.06       0.00       0.00       0.00        0.00     0.00   0.061
  LMDN008CC0273              0.08       0.00       0.00       0.06       0.00       0.00       0.00        0.00     0.01   0.052
  LMDN008CC0274              0.08       0.00       0.00       0.04       0.01       0.00       0.01        0.00     0.04   0.098
  LMDN008CC0275              0.08       0.00       0.00       0.05       0.01       0.00       0.01        0.00     0.01   0.070
  LMDN008CC0276              0.08       0.00       0.00       0.03       0.01       0.00       0.01        0.00     0.04   0.089
  LMDN008CC0277              0.08       0.00       0.00       0.06       0.00       0.00       0.00        0.00     0.00   0.047
  LMDN008CC0278              0.08       0.00       0.00       0.06       0.00       0.00       0.00        0.00     0.01   0.058
  LMDN008CC0279              0.08       0.00       0.00       0.06       0.00       0.00       0.00        0.00     0.01   0.048
  LMDN008CC0280              0.08       0.00       0.00       0.06       0.00       0.00       0.00        0.00     0.01   0.050
  LMDN008CC0281              0.08       0.00       0.00       0.06       0.00       0.00       0.00        0.00     0.01   0.049
  LMDN008CC0282              0.08       0.00       0.00       0.06       0.00       0.00       0.00        0.00     0.00   0.048
  LMDN008CC0283              0.08       0.00       0.00       0.05       0.00       0.00       0.00        0.00     0.02   0.047
  LMDN008CC0284              0.08       0.00       0.00       0.06       0.00       0.00       0.00        0.00     0.02   0.045
  LMDN008CC0285              0.08       0.00       0.00       0.06       0.00       0.00       0.00        0.00     0.02   0.048
  LMDN008CC0286              0.08       0.00       0.00       0.06       0.00       0.00       0.00        0.00     0.01   0.057
  LMDN008CC0287              0.08       0.00       0.00       0.06       0.00       0.00       0.00        0.00     0.01   0.053
  LMDN008CC0288              0.08       0.00       0.00       0.06       0.00       0.00       0.00        0.00     0.00   0.051
  LMDN008CC0289              0.08       0.00       0.00       0.06       0.00       0.00       0.00        0.00     0.00   0.051
  LMDN008CC0290              0.08       0.00       0.00       0.06       0.00       0.00       0.00        0.00     0.00   0.051
  LMDN008CC0291              0.08       0.00       0.00       0.06       0.00       0.00       0.00        0.00     0.04   0.032
  LMDN008CC0292              0.08       0.00       0.00       0.06       0.00       0.00       0.00        0.00     0.00   0.050
  LMDN008CC0293              0.08       0.00       0.00       0.06       0.01       0.00       0.01        0.00     0.00   0.071
  LMDN008CC0294              0.08       0.00       0.00       0.06       0.00       0.00       0.00        0.00     0.00   0.060
  LMDN008CC0295              0.08       0.00       0.00       0.05       0.01       0.00       0.01        0.00     0.00   0.079
  LMDN008CC0296              0.08       0.00       0.00       0.06       0.00       0.00       0.00        0.00     0.00   0.060
  LMDN008CC0297              0.08       0.00       0.00       0.06       0.00       0.00       0.00        0.00     0.01   0.057
  LMDN008CC0298              0.08       0.00       0.00       0.06       0.00       0.00       0.00        0.00     0.00   0.061
  LMDN008CC0299              0.08       0.00       0.00       0.06       0.01       0.00       0.01        0.00     0.00   0.064
  LMDN008CC0300              0.08       0.00       0.00       0.06       0.00       0.00       0.00        0.00     0.01   0.056
  LMDN008CC0301              0.08       0.00       0.00       0.06       0.00       0.00       0.00        0.00     0.00   0.054
  LMDN008CC0302              0.08       0.00       0.00       0.06       0.00       0.00       0.00        0.00     0.01   0.060
  LMDN008CC0303              0.08       0.00       0.00       0.04       0.01       0.00       0.01        0.00     0.04   0.087
  LMDN008CC0304              0.08       0.00       0.00       0.06       0.01       0.00       0.01        0.00     0.01   0.068
  LMDN008CC0305              0.08       0.00       0.00       0.06       0.00       0.00       0.00        0.00     0.01   0.056
  LMDN008CC0306              0.08       0.00       0.00       0.05       0.00       0.00       0.00        0.00     0.02   0.057
  LMDN008CC0307              0.08       0.00       0.00       0.06       0.00       0.00       0.00        0.00     0.00   0.046
  LMDN008CC0308              0.08       0.00       0.00       0.06       0.00       0.00       0.00        0.00     0.01   0.059
  LMDN008CC0309              0.08       0.00       0.00       0.06       0.00       0.00       0.00        0.00     0.01   0.046
  LMDN008CC0310              0.08       0.00       0.00       0.06       0.00       0.00       0.00        0.00     0.00   0.049
  LMDN008CC0311              0.08       0.00       0.00       0.06       0.00       0.00       0.00        0.00     0.01   0.048
  LMDN008CC0312              0.08       0.00       0.00       0.06       0.01       0.00       0.01        0.00     0.01   0.068
  LMDN008CC0313              0.08       0.00       0.00       0.05       0.00       0.00       0.00        0.00     0.01   0.054
  LMDN008CC0314              0.08       0.00       0.00       0.06       0.00       0.00       0.00        0.00     0.01   0.049
  LMDN008CC0315              0.08       0.00       0.00       0.05       0.00       0.00       0.00        0.00     0.02   0.061
  LMDN008CC0316              0.08       0.00       0.00       0.06       0.00       0.00       0.00        0.00     0.01   0.055
  LMDN008CC0317              0.08       0.00       0.00       0.06       0.00       0.00       0.00        0.00     0.01   0.052
  LMDN008CC0318              0.08       0.00       0.00       0.06       0.00       0.00       0.00        0.00     0.01   0.044
  LMDN008CC0319              0.08       0.00       0.00       0.06       0.00       0.00       0.00        0.00     0.01   0.062
  LMDN008CC0320              0.08       0.00       0.00       0.06       0.00       0.00       0.00        0.00     0.00   0.057
  LMDN008CC0321              0.08       0.00       0.00       0.06       0.00       0.00       0.00        0.00     0.00   0.056
  LMDN008CC0322              0.08       0.00       0.00       0.06       0.00       0.00       0.00        0.00     0.01   0.062
  LMDN008CC0323              0.08       0.00       0.00       0.06       0.00       0.00       0.00        0.00     0.01   0.059
  LMDN008CC0324              0.08       0.00       0.00       0.06       0.00       0.00       0.00        0.00     0.00   0.058
  LMDN008CC0325              0.08       0.00       0.00       0.06       0.00       0.00       0.00        0.00     0.00   0.060
  LMDN008CC0326              0.08       0.00       0.00       0.06       0.00       0.00       0.00        0.00     0.01   0.052
  LMDN008CC0327              0.08       0.00       0.00       0.05       0.01       0.00       0.01        0.00     0.02   0.077
  LMDN008CC0328              0.08       0.00       0.00       0.06       0.00       0.00       0.00        0.00     0.01   0.042
  LMDN008CC0329              0.08       0.00       0.00       0.06       0.00       0.00       0.00        0.00     0.00   0.047
  LMDN008CC0330              0.08       0.00       0.00       0.06       0.00       0.00       0.00        0.00     0.03   0.037
  LMDN008CC0331              0.08       0.00       0.00       0.06       0.00       0.00       0.00        0.00     0.03   0.033
  LMDN008CC0332              0.08       0.00       0.00       0.05       0.00       0.00       0.00        0.00     0.09   0.048
  LMDN008CC0333              0.08       0.00       0.00       0.06       0.00       0.00       0.00        0.00     0.02   0.048
  LMDN008CC0334              0.08       0.00       0.00       0.06       0.00       0.00       0.00        0.00     0.02   0.035
  LMDN008CC0335              0.08       0.00       0.00       0.05       0.00       0.00       0.00        0.00     0.01   0.060
  LMDN008CC0336              0.08       0.00       0.00       0.06       0.00       0.00       0.00        0.00     0.01   0.050
  LMDN008CC0337              0.08       0.00       0.00       0.06       0.00       0.00       0.00        0.00     0.00   0.049
  LMDN008CC0338              0.08       0.00       0.00       0.05       0.00       0.00       0.00        0.00     0.02   0.059
  LMDN008CC0339              0.08       0.00       0.00       0.06       0.00       0.00       0.00        0.00     0.01   0.047
  LMDN008CC0340              0.08       0.00       0.00       0.05       0.01       0.00       0.01        0.00     0.02   0.070
  LMDN008CC0341              0.08       0.00       0.00       0.05       0.01       0.00       0.01        0.00     0.02   0.095
  LMDN008CC0342              0.08       0.00       0.00       0.05       0.01       0.00       0.01        0.00     0.05   0.069
  LMDC002SC0019              0.08       0.00       0.00       0.02       0.01       0.00       0.01        0.00     0.03   0.154
  LMDC002SC0020              0.08       0.00       0.00       0.02       0.01       0.00       0.01        0.00     0.02   0.145
  LMDC002SC0021              0.08       0.00       0.00       0.02       0.01       0.00       0.01        0.00     0.05   0.147
  LMDC002SC0022              0.08       0.00       0.00       0.02       0.01       0.00       0.01        0.00     0.01   0.144
  LMDC002SC0023              0.08       0.00       0.00       0.02       0.01       0.00       0.01        0.00     0.07   0.124
  LMDC002SC0024              0.08       0.00       0.00       0.02       0.01       0.00       0.01        0.00     0.02   0.150
  LMDC002SC0025              0.08       0.00       0.00       0.02       0.01       0.00       0.01        0.00     0.01   0.148
  LMDC002SC0026              0.08       0.00       0.00       0.02       0.01       0.00       0.01        0.00     0.04   0.128
  LMDC002SC0027              0.08       0.00       0.00       0.02       0.01       0.00       0.01        0.00     0.02   0.129
  LMDC002SC0028              0.08       0.00       0.00       0.02       0.01       0.00       0.01        0.00     0.01   0.157
  LMDC002SC0029              0.08       0.00       0.00       0.02       0.01       0.00       0.01        0.00     0.04   0.088
  LMDC002SC0030              0.08       0.00       0.00       0.02       0.01       0.00       0.01        0.00     0.03   0.074
  LMDC002SC0031              0.08       0.00       0.00       0.02       0.01       0.00       0.01        0.00     0.03   0.116
  LMDC002SC0032              0.08       0.00       0.00       0.02       0.01       0.00       0.01        0.00     0.02   0.088
  LMDC002SC0033              0.08       0.00       0.00       0.02       0.01       0.00       0.01        0.00     0.03   0.089
  LMDC002SC0034              0.08       0.00       0.00       0.02       0.01       0.00       0.01        0.00     0.02   0.097
  LMDC002SC0035              0.08       0.00       0.00       0.02       0.01       0.00       0.01        0.00     0.02   0.093
  LMDC002SC0038              0.08       0.00       0.00       0.02       0.01       0.00       0.01        0.00     0.05   0.095
  LMDC002SC0049              0.08       0.00       0.00       0.02       0.01       0.00       0.01        0.00     0.03   0.144
  LMDC002SC0050              0.08       0.00       0.00       0.02       0.01       0.00       0.01        0.00     0.02   0.148
  LMDC002SC0056              0.08       0.00       0.00       0.02       0.01       0.00       0.01        0.00     0.07   0.067
  LMDC002SC0065              0.08       0.00       0.00       0.02       0.01       0.00       0.01        0.00     0.02   0.105
  LMDC002SC0066              0.08       0.00       0.00       0.02       0.01       0.00       0.01        0.00     0.04   0.082
  LMDC002SC0086              0.08       0.00       0.00       0.02       0.01       0.00       0.01        0.00     0.00   0.124
  LMDC002SC0087              0.08       0.00       0.00       0.06       0.00       0.00       0.00        0.00     0.01   0.047
  LMDC002SC0116              0.08       0.00       0.00       0.02       0.01       0.00       0.01        0.00     0.14   0.075
  LMDC002SC0119              0.08       0.00       0.00       0.02       0.00       0.00       0.00        0.01     0.22   0.060
  LMDC002SC0120              0.08       0.00       0.00       0.02       0.00       0.00       0.00        0.00     0.12   0.046
  LMDC002SC0121              0.08       0.00       0.00       0.02       0.00       0.00       0.00        0.00     0.14   0.045
  LMDC002SC0122              0.08       0.00       0.00       0.02       0.00       0.00       0.00        0.00     0.10   0.062
  LMDC002SC0123              0.08       0.00       0.00       0.04       0.01       0.00       0.01        0.00     0.06   0.087
  LMDC002SC0134              0.08       0.00       0.00       0.02       0.01       0.00       0.01        0.00     0.04   0.069
  LMDC002SC0144              0.08       0.00       0.00       0.02       0.01       0.00       0.01        0.00     0.02   0.068
  LMDC002SC0145              0.08       0.00       0.00       0.02       0.01       0.00       0.01        0.00     0.17   0.097
  LMDC002SC0146              0.08       0.00       0.00       0.02       0.00       0.00       0.00        0.00     0.10   0.055
  LMDC002SC0147              0.08       0.00       0.00       0.02       0.01       0.00       0.01        0.00     0.06   0.087
  LMDC004CC0001              0.08       0.00       0.00       0.05       0.01       0.00       0.01        0.00     0.00   0.082
  LMDC004CC0002              0.08       0.00       0.00       0.05       0.01       0.00       0.01        0.00     0.00   0.104
  LMDC004CC0003              0.08       0.00       0.00       0.05       0.01       0.00       0.01        0.00     0.00   0.091
  LMDC004CC0004              0.08       0.00       0.00       0.05       0.01       0.00       0.01        0.00     0.01   0.096
  LMDC004CC0005              0.08       0.00       0.00       0.05       0.01       0.00       0.01        0.00     0.04   0.070
  LMDC004CC0006              0.08       0.00       0.00       0.05       0.01       0.00       0.01        0.00     0.02   0.074
  LMDC004CC0007              0.08       0.00       0.00       0.05       0.01       0.00       0.01        0.00     0.05   0.074
  LMDC004CC0008              0.08       0.00       0.00       0.05       0.01       0.00       0.01        0.00     0.05   0.075
  LMDC004CC0009              0.08       0.00       0.00       0.05       0.00       0.00       0.00        0.00     0.02   0.054
  LMDC004CC0010              0.08       0.00       0.00       0.05       0.00       0.00       0.00        0.00     0.01   0.045
  LMDC004CC0011              0.08       0.00       0.00       0.05       0.00       0.00       0.00        0.00     0.01   0.052
  LMDC004CC0012              0.08       0.00       0.00       0.05       0.00       0.00       0.00        0.00     0.02   0.053
  LMDC004CC0013              0.08       0.00       0.00       0.05       0.00       0.00       0.00        0.00     0.04   0.046
  LMDC004CC0014              0.08       0.00       0.00       0.05       0.01       0.00       0.01        0.00     0.01   0.064
  LMDC004CC0015              0.08       0.00       0.00       0.05       0.01       0.00       0.01        0.00     0.02   0.081
  LMDC004CC0016              0.08       0.00       0.00       0.05       0.01       0.00       0.01        0.00     0.01   0.079
  LMDC004CC0017              0.08       0.00       0.00       0.05       0.01       0.00       0.01        0.00     0.01   0.070
  LMDC004CC0018              0.08       0.00       0.00       0.05       0.00       0.00       0.00        0.00     0.01   0.052
  LMDC004CC0019              0.08       0.00       0.00       0.05       0.00       0.00       0.00        0.00     0.02   0.056
  LMDC004CC0020              0.08       0.00       0.00       0.05       0.00       0.00       0.00        0.00     0.01   0.042
  LMDC004CC0021              0.08       0.00       0.00       0.05       0.00       0.00       0.00        0.00     0.02   0.050
  LMDC004CC0022              0.08       0.00       0.00       0.05       0.01       0.00       0.01        0.00     0.00   0.082
  LMDC004CC0023              0.08       0.00       0.00       0.05       0.01       0.00       0.01        0.00     0.00   0.076
  LMDC004CC0024              0.08       0.00       0.00       0.05       0.01       0.00       0.01        0.00     0.03   0.071
  LMDC004CC0025              0.08       0.00       0.00       0.05       0.00       0.00       0.00        0.00     0.01   0.047
  LMDC004CC0026              0.08       0.00       0.00       0.05       0.00       0.00       0.00        0.00     0.02   0.036
  LMDC004CC0028              0.08       0.00       0.00       0.05       0.00       0.00       0.00        0.00     0.03   0.055
  LMDC004CC0034              0.08       0.00       0.00       0.07       0.00       0.00       0.00        0.00     0.01   0.031
  LMDC004CC0039              0.08       0.00       0.00       0.05       0.01       0.00       0.01        0.00     0.00   0.091
  LMDC004CC0040              0.08       0.00       0.00       0.05       0.01       0.00       0.01        0.00     0.01   0.095
  LMDC004CC0041              0.08       0.00       0.00       0.05       0.01       0.00       0.01        0.00     0.01   0.082
  LMDC004CC0042              0.08       0.00       0.00       0.05       0.01       0.00       0.01        0.00     0.01   0.080
  LMDC004CC0043              0.08       0.00       0.00       0.05       0.01       0.00       0.01        0.00     0.01   0.081
  LMDC004CC0044              0.08       0.00       0.00       0.05       0.01       0.00       0.01        0.00     0.02   0.076
  LMDC004CC0045              0.08       0.00       0.00       0.05       0.01       0.00       0.01        0.00     0.03   0.098
  LMDC004CC0046              0.08       0.00       0.00       0.05       0.01       0.00       0.01        0.00     0.00   0.095
  LMDC004CC0047              0.08       0.00       0.00       0.05       0.00       0.00       0.00        0.00     0.06   0.044
  LMDC004CC0048              0.08       0.00       0.00       0.05       0.01       0.00       0.01        0.00     0.00   0.091
  LMDC004CC0049              0.08       0.00       0.00       0.05       0.00       0.00       0.00        0.00     0.04   0.048
  LMDC004CC0050              0.08       0.00       0.00       0.05       0.00       0.00       0.00        0.00     0.04   0.056
  LMDC004CC0051              0.08       0.00       0.00       0.05       0.01       0.00       0.01        0.00     0.01   0.086
  LMDC004CC0052              0.08       0.00       0.00       0.05       0.01       0.00       0.01        0.00     0.01   0.074
  LMDC004CC0053              0.08       0.00       0.00       0.05       0.01       0.00       0.01        0.00     0.01   0.078
  LMDC004CC0054              0.08       0.00       0.00       0.05       0.01       0.00       0.01        0.00     0.02   0.070
  LMDC004CC0055              0.08       0.00       0.00       0.05       0.01       0.00       0.01        0.00     0.01   0.089
  LMDC004CC0056              0.08       0.00       0.00       0.05       0.00       0.00       0.00        0.00     0.02   0.049
  LMDC004CC0057              0.08       0.00       0.00       0.05       0.01       0.00       0.01        0.00     0.01   0.065
  LMDC004CC0059              0.08       0.00       0.00       0.05       0.01       0.00       0.01        0.00     0.02   0.080
  LMDC004CC0061              0.08       0.00       0.00       0.05       0.00       0.00       0.00        0.00     0.05   0.050
  LMDC004CC0062              0.08       0.00       0.00       0.05       0.01       0.00       0.01        0.00     0.02   0.073
  LMDC004CC0063              0.08       0.00       0.00       0.05       0.01       0.00       0.01        0.00     0.02   0.066
  LMDC004CC0064              0.08       0.00       0.00       0.05       0.00       0.00       0.00        0.00     0.02   0.060
  LMDC004CC0065              0.08       0.00       0.00       0.05       0.01       0.00       0.01        0.00     0.03   0.082
  LMDC004CC0066              0.08       0.00       0.00       0.05       0.01       0.00       0.01        0.00     0.01   0.079
  LMDC004CC0067              0.08       0.00       0.00       0.05       0.01       0.00       0.01        0.00     0.03   0.068
  LMDC004CC0068              0.08       0.00       0.00       0.05       0.01       0.00       0.01        0.00     0.01   0.086
  LMDC004CC0069              0.08       0.00       0.00       0.05       0.00       0.00       0.00        0.00     0.07   0.055
  LMDC004CC0070              0.08       0.00       0.00       0.05       0.01       0.00       0.01        0.01     0.31   0.075
  LMDC005CC0001              0.08       0.00       0.00       0.05       0.01       0.00       0.01        0.00     0.01   0.068
  LMDC005CC0002              0.08       0.00       0.00       0.06       0.00       0.00       0.00        0.00     0.00   0.052
  LMDC005CC0003              0.08       0.00       0.00       0.05       0.01       0.00       0.01        0.00     0.01   0.096
  LMDC005CC0004              0.08       0.00       0.00       0.06       0.00       0.00       0.00        0.00     0.01   0.048
  LMDC005CC0005              0.08       0.00       0.00       0.04       0.01       0.00       0.01        0.00     0.01   0.102
  LMDC005CC0008              0.08       0.00       0.00       0.02       0.01       0.00       0.01        0.00     0.06   0.117
  LMDC005CC0010              0.08       0.00       0.00       0.02       0.01       0.00       0.01        0.00     0.01   0.098
  LMDC005CC0017              0.08       0.00       0.00       0.04       0.01       0.00       0.01        0.00     0.05   0.093
  LMDC005CC0020              0.08       0.00       0.00       0.06       0.00       0.00       0.00        0.00     0.04   0.051
  LMDC005CC0021              0.08       0.00       0.00       0.05       0.01       0.00       0.01        0.00     0.03   0.064
  LMDC005CC0022              0.08       0.00       0.00       0.05       0.01       0.00       0.01        0.00     0.05   0.068
  LMDC005CC0023              0.08       0.00       0.00       0.06       0.00       0.00       0.00        0.00     0.03   0.044
  LMDC005CC0024              0.08       0.00       0.00       0.06       0.00       0.00       0.00        0.00     0.02   0.042
  LMDC005CC0025              0.08       0.00       0.00       0.08       0.00       0.00       0.00        0.00     0.00   0.002
  LMDC005CC0026              0.08       0.00       0.00       0.05       0.00       0.00       0.00        0.00     0.09   0.052
  LMDC005CC0027              0.08       0.00       0.00       0.05       0.01       0.00       0.01        0.00     0.02   0.066
  LMDC005CC0028              0.08       0.00       0.00       0.06       0.00       0.00       0.00        0.00     0.03   0.035
  LMDC005CC0029              0.08       0.00       0.00       0.06       0.00       0.00       0.00        0.00     0.03   0.042
  LMDC005CC0032              0.08       0.00       0.00       0.06       0.00       0.00       0.00        0.00     0.02   0.051
  LMDC005CC0033              0.08       0.00       0.00       0.04       0.01       0.00       0.01        0.00     0.09   0.078
  LMDC005CC0034              0.08       0.00       0.00       0.02       0.01       0.00       0.01        0.00     0.07   0.079
  LMDC005CC0035              0.08       0.00       0.00       0.04       0.01       0.00       0.01        0.00     0.01   0.096
  LMDC005CC0036              0.08       0.00       0.00       0.06       0.00       0.00       0.00        0.00     0.03   0.044
  LMDC005CC0047              0.08       0.00       0.00       0.03       0.01       0.00       0.01        0.00     0.03   0.097
  LMDC005CC0048              0.08       0.00       0.00       0.06       0.00       0.00       0.00        0.00     0.04   0.039
  LMDC005CC0049              0.08       0.00       0.00       0.06       0.00       0.00       0.00        0.00     0.02   0.042
  LMDC005CC0050              0.08       0.00       0.00       0.04       0.01       0.00       0.01        0.00     0.05   0.080
  LMDC005CC0053              0.08       0.00       0.00       0.06       0.00       0.00       0.00        0.00     0.01   0.058
  LMDC005CC0055              0.08       0.00       0.00       0.06       0.00       0.00       0.00        0.00     0.02   0.043
  LMDC005CC0059              0.08       0.00       0.00       0.02       0.01       0.00       0.01        0.00     0.08   0.096
  LMDC005CC0060              0.08       0.00       0.00       0.06       0.00       0.00       0.00        0.00     0.06   0.040
  LMDC005CC0071              0.08       0.00       0.00       0.05       0.00       0.00       0.00        0.00     0.04   0.051
  LMDC005CC0076              0.08       0.00       0.00       0.02       0.01       0.00       0.01        0.00     0.03   0.070
  LMDC005CC0077              0.08       0.00       0.00       0.06       0.00       0.00       0.00        0.00     0.02   0.049
  LMDC005CC0078              0.08       0.00       0.00       0.05       0.00       0.00       0.00        0.00     0.03   0.052
  LMDC005CC0082              0.08       0.00       0.00       0.06       0.00       0.00       0.00        0.00     0.03   0.040
  LMDC005CC0083              0.08       0.00       0.00       0.05       0.00       0.00       0.00        0.00     0.05   0.062
  LMDC005CC0084              0.08       0.00       0.00       0.06       0.00       0.00       0.00        0.00     0.05   0.045
  LMDC005CC0085              0.08       0.00       0.00       0.06       0.00       0.00       0.00        0.00     0.02   0.043
  LMDC005CC0086              0.08       0.00       0.00       0.06       0.00       0.00       0.00        0.00     0.01   0.044
  LMDC005CC0087              0.08       0.00       0.00       0.08       0.00       0.00       0.00        0.00     0.00   0.003
  LMDC005CC0088              0.08       0.00       0.00       0.04       0.01       0.00       0.01        0.00     0.01   0.117
  LMDC005CC0089              0.08       0.00       0.00       0.05       0.01       0.00       0.01        0.00     0.02   0.076
  LMDC005CC0090              0.08       0.00       0.00       0.06       0.00       0.00       0.00        0.00     0.01   0.062
  LMDC005CC0094              0.08       0.00       0.00       0.06       0.00       0.00       0.00        0.00     0.00   0.052
  LMDC005CC0095              0.08       0.00       0.00       0.06       0.00       0.00       0.00        0.00     0.02   0.038
  LMDC005CC0101              0.08       0.00       0.00       0.03       0.01       0.00       0.01        0.01     0.54   0.071
  LMDC005CC0102              0.08       0.00       0.00       0.06       0.00       0.00       0.00        0.00     0.03   0.042
  LMDC005CC0103              0.08       0.00       0.00       0.03       0.01       0.00       0.01        0.00     0.02   0.104
  LMDC008CC0001              0.08       0.00       0.00       0.05       0.01       0.00       0.01        0.00     0.02   0.085
  LMDC008CC0002              0.08       0.00       0.00       0.02       0.01       0.00       0.01        0.00     0.03   0.087
  LMDC008CC0003              0.08       0.00       0.00       0.02       0.01       0.00       0.01        0.00     0.02   0.094
  LMDC008CC0004              0.08       0.00       0.00       0.02       0.01       0.00       0.01        0.00     0.03   0.113
  LMDC008CC0005              0.08       0.00       0.00       0.05       0.01       0.00       0.01        0.00     0.01   0.071
  LMDC008CC0006              0.08       0.00       0.00       0.03       0.01       0.00       0.01        0.00     0.03   0.077
  LMDC008CC0007              0.08       0.00       0.00       0.06       0.00       0.00       0.00        0.00     0.01   0.052
  LMDC008CC0008              0.08       0.00       0.00       0.04       0.01       0.00       0.01        0.00     0.03   0.072
  LMDC008CC0009              0.08       0.00       0.00       0.06       0.00       0.00       0.00        0.00     0.01   0.041
  LMDC008CC0010              0.08       0.00       0.00       0.06       0.00       0.00       0.00        0.00     0.02   0.043
  LMDC008CC0011              0.08       0.00       0.00       0.05       0.01       0.00       0.01        0.00     0.02   0.074
  LMDC008CC0012              0.08       0.00       0.00       0.06       0.00       0.00       0.00        0.00     0.01   0.052
  LMDC008CC0013              0.08       0.00       0.00       0.05       0.01       0.00       0.01        0.00     0.01   0.067
  LMDC008CC0014              0.08       0.00       0.00       0.06       0.00       0.00       0.00        0.00     0.03   0.042
  LMDC008CC0015              0.08       0.00       0.00       0.06       0.00       0.00       0.00        0.00     0.01   0.044
  LMDC008CC0016              0.08       0.00       0.00       0.06       0.00       0.00       0.00        0.00     0.01   0.051
  LMDC008CC0017              0.08       0.00       0.00       0.06       0.00       0.00       0.00        0.00     0.01   0.041
  LMDC008CC0018              0.08       0.00       0.00       0.06       0.00       0.00       0.00        0.00     0.02   0.052
  LMDC008CC0019              0.08       0.00       0.00       0.06       0.00       0.00       0.00        0.00     0.01   0.051
  LMDC008CC0020              0.08       0.00       0.00       0.05       0.01       0.00       0.01        0.00     0.04   0.065
  LMDC008CC0021              0.08       0.00       0.00       0.06       0.00       0.00       0.00        0.00     0.04   0.053
  LMDC008CC0022              0.08       0.00       0.00       0.05       0.00       0.00       0.00        0.00     0.02   0.059
  LMDC008CC0023              0.08       0.00       0.00       0.06       0.00       0.00       0.00        0.00     0.01   0.062
  LMDC008CC0024              0.08       0.00       0.00       0.06       0.00       0.00       0.00        0.00     0.01   0.061
  LMDC008CC0025              0.08       0.00       0.00       0.06       0.00       0.00       0.00        0.00     0.02   0.049
  LMDC008CC0026              0.08       0.00       0.00       0.05       0.01       0.00       0.01        0.00     0.01   0.092
  LMDC008CC0027              0.08       0.00       0.00       0.06       0.00       0.00       0.00        0.00     0.01   0.054
  LMDC008CC0028              0.08       0.00       0.00       0.06       0.00       0.00       0.00        0.00     0.02   0.048
  LMDC008CC0029              0.08       0.00       0.00       0.06       0.00       0.00       0.00        0.00     0.03   0.044
  LMDC008CC0030              0.08       0.00       0.00       0.06       0.00       0.00       0.00        0.00     0.01   0.050
  LMDC008CC0031              0.08       0.00       0.00       0.03       0.01       0.00       0.01        0.00     0.05   0.096
  LMDC008CC0037              0.08       0.00       0.00       0.02       0.01       0.00       0.01        0.00     0.03   0.132
  LMDC008CC0038              0.08       0.00       0.00       0.05       0.01       0.00       0.01        0.00     0.01   0.066
  LMDC008CC0039              0.08       0.00       0.00       0.04       0.01       0.00       0.01        0.00     0.02   0.101
  LMDC008CC0041              0.08       0.00       0.00       0.02       0.01       0.00       0.01        0.00     0.02   0.172
  LMDC008CC0049              0.08       0.00       0.00       0.06       0.00       0.00       0.00        0.00     0.04   0.040
  LMDC008CC0050              0.08       0.00       0.00       0.06       0.00       0.00       0.00        0.00     0.01   0.048
  LMDC008CC0051              0.08       0.00       0.00       0.06       0.00       0.00       0.00        0.00     0.01   0.059
  LMDC008CC0052              0.08       0.00       0.00       0.05       0.01       0.00       0.01        0.00     0.01   0.063
  LMDC008CC0054              0.08       0.00       0.00       0.06       0.00       0.00       0.00        0.00     0.01   0.051
  LMDC008CC0055              0.08       0.00       0.00       0.06       0.00       0.00       0.00        0.00     0.01   0.047
  LMDC008CC0056              0.08       0.00       0.00       0.06       0.00       0.00       0.00        0.00     0.02   0.045
  LMDC008CC0057              0.08       0.00       0.00       0.05       0.01       0.00       0.01        0.00     0.02   0.072
  LMDC008CC0058              0.08       0.00       0.00       0.05       0.01       0.00       0.01        0.00     0.05   0.072
  LMDC008CC0059              0.08       0.00       0.00       0.06       0.00       0.00       0.00        0.00     0.00   0.053
  LMDC008CC0060              0.08       0.00       0.00       0.04       0.01       0.00       0.01        0.00     0.01   0.113
  LMDC008CC0061              0.08       0.00       0.00       0.04       0.01       0.00       0.01        0.00     0.03   0.090
  LMDC008CC0062              0.08       0.00       0.00       0.06       0.00       0.00       0.00        0.00     0.01   0.053
  LMDC008CC0063              0.08       0.00       0.00       0.04       0.01       0.00       0.01        0.00     0.01   0.117
  LMDC008CC0064              0.08       0.00       0.00       0.06       0.00       0.00       0.00        0.00     0.00   0.050
  LMDC008CC0065              0.08       0.00       0.00       0.06       0.00       0.00       0.00        0.00     0.02   0.052
  LMDC008CC0066              0.08       0.00       0.00       0.05       0.00       0.00       0.00        0.00     0.02   0.058
  LMDC008CC0067              0.08       0.00       0.00       0.04       0.01       0.00       0.01        0.00     0.03   0.076
  LMDC008CC0068              0.08       0.00       0.00       0.05       0.01       0.00       0.01        0.00     0.00   0.099
  LMDC008CC0069              0.08       0.00       0.00       0.06       0.01       0.00       0.01        0.00     0.01   0.072
  LMDC008CC0070              0.08       0.00       0.00       0.06       0.00       0.00       0.00        0.00     0.00   0.050
  LMDC008CC0071              0.08       0.00       0.00       0.06       0.00       0.00       0.00        0.00     0.01   0.053
  LMDC008CC0073              0.08       0.00       0.00       0.06       0.00       0.00       0.00        0.00     0.02   0.042
  LMDC008CC0075              0.08       0.00       0.00       0.06       0.01       0.00       0.01        0.00     0.00   0.067
  LMDC008CC0083              0.08       0.00       0.00       0.06       0.00       0.00       0.00        0.00     0.01   0.050
  LMDC008CC0084              0.08       0.00       0.00       0.06       0.00       0.00       0.00        0.00     0.04   0.039
  LMDC008CC0087              0.08       0.00       0.00       0.06       0.00       0.00       0.00        0.00     0.03   0.046
  LMDC008CC0096              0.08       0.00       0.00       0.06       0.00       0.00       0.00        0.00     0.01   0.043
  LMDC008CC0100              0.08       0.00       0.00       0.06       0.01       0.00       0.01        0.00     0.01   0.065
  LMDC008CC0101              0.08       0.00       0.00       0.02       0.01       0.00       0.01        0.00     0.01   0.156
  LMDC008CC0115              0.08       0.00       0.00       0.06       0.00       0.00       0.00        0.00     0.01   0.045
  LMDC008CC0116              0.08       0.00       0.00       0.05       0.00       0.00       0.00        0.00     0.01   0.061
  LMDC008CC0117              0.08       0.00       0.00       0.06       0.00       0.00       0.00        0.00     0.01   0.051
  LMDC008CC0118              0.08       0.00       0.00       0.05       0.01       0.00       0.01        0.00     0.00   0.079
  LMDC008CC0124              0.08       0.00       0.00       0.06       0.00       0.00       0.00        0.00     0.01   0.059
  LMDC16ASC0009              0.08       0.00       0.00       0.06       0.00       0.00       0.00        0.00     0.02   0.053
  LMDC16ASC0010              0.08       0.00       0.00       0.06       0.00       0.00       0.00        0.00     0.00   0.060
  LMDC16ASC0011              0.08       0.00       0.00       0.06       0.00       0.00       0.00        0.00     0.00   0.059
  LMDC16ASC0012              0.08       0.00       0.00       0.06       0.00       0.00       0.00        0.00     0.01   0.059
  LMDC016CC0001              0.08       0.00       0.00       0.04       0.01       0.00       0.01        0.00     0.01   0.066
  LMDC016CC0002              0.08       0.00       0.00       0.03       0.01       0.00       0.01        0.00     0.00   0.115
  LMDC016CC0003              0.08       0.00       0.00       0.03       0.01       0.00       0.01        0.00     0.00   0.108
  LMDC016CC0004              0.08       0.00       0.00       0.05       0.00       0.00       0.00        0.00     0.01   0.050
  LMDC016CC0005              0.08       0.00       0.00       0.04       0.01       0.00       0.01        0.00     0.01   0.115
  LMDC016CC0006              0.08       0.00       0.00       0.05       0.00       0.00       0.00        0.00     0.04   0.060
  LMDC016CC0008              0.08       0.00       0.00       0.05       0.01       0.00       0.01        0.00     0.01   0.065
  LMDC016CC0009              0.08       0.00       0.00       0.05       0.01       0.00       0.01        0.00     0.04   0.066
[...]
  42204015-42204014           0.34      0.34      0.36      0.35         0.34
  42205013-42204006           0.63      0.67      0.63      0.70         0.63
  45612001-45606003           0.23      0.28      0.23      0.08         0.01
  45612002-45612001           0.28      0.33      0.28      0.14         0.05
  45612003-45612002           0.33      0.42      0.33      0.25         0.09
  45612004-45605001           0.70      0.76      0.70      0.79         0.68
  45504002-45504003           0.51      0.52      0.51      0.55         0.51
  45504003-45504004           0.31      0.51      0.31      0.51         0.31
  45504004-45504005           0.32      0.32      0.88      0.01         0.01
  45504005-45504014A          0.50      0.88      0.50      0.88         0.50
  45504007-45504008           0.13      0.49      0.13      0.74         0.13
  45504008-45504009           0.01      0.13      0.01      0.92         0.01
  45504010-47401003           0.01      0.01      0.92      0.01         0.01
  45505001-45504007           0.49      0.70      0.49      0.89         0.49
  45505002-45505001           0.70      0.81      0.70      1.26         0.70
  45505003-45505008           0.90      0.93      0.90      1.00         0.90
  45505004-45505003           0.93      0.97      0.93      1.06         0.93
  45505008-45505002           0.81      0.90      0.81      0.97         0.81
  45511008-45511009           0.49      0.49      0.52      0.43         0.01
  45511009-45511010           0.52      0.52      0.69      0.01         0.01
  45511010-45512004           0.69      0.69      0.73      0.01         0.01
  45512004-45512018           0.73      0.73      1.04      0.01         0.01
  45512007-45505004           0.97      1.01      0.97      1.09         0.97
  45512008-45512007           1.01      1.04      1.01      1.12         1.01
  45512009-45512017           1.07      1.11      1.07      1.30         1.07
  45512010-45512017           0.01      0.01      1.07      0.01         0.01
  45512015-45512009           0.94      0.94      1.11      0.89         0.88
  45512017-45512008           1.04      1.07      1.04      1.22         1.04
  45512018-45512009           1.04      1.04      1.11      0.01         0.01
  45513008-45512015           0.91      0.91      0.94      0.78         0.82
  45513009-45513008           0.01      0.01      0.91      0.01         0.01
  45513011-45513008           0.90      0.90      0.91      0.86         0.79
  45513012-45513011           0.90      0.94      0.90      0.91         0.78
  45514008-45511008           0.46      0.46      0.49      0.43         0.01
  45514009-45514008           0.34      0.34      0.46      0.01         0.01
  45601026-45601027           0.01      0.01      0.13      0.01         0.01
  45601027-45602005           0.13      0.13      0.27      0.01         0.01
  45602001-45715004           0.31      0.31      0.33      0.01         0.01
  45602002-45602001           0.31      0.38      0.31      0.35         0.01
  45602003-45602002           0.38      0.38      0.38      0.11         0.06
  45602004-45602003           0.31      0.31      0.38      0.01         0.01
  45602005-45602004           0.31      0.31      0.31      0.15         0.01
  45603001-45714001           0.35      0.35      0.44      0.21         0.01
  45603002-45603001           0.28      0.28      0.35      0.12         0.01
  45604001-45714003           0.63      0.64      0.63      0.65         0.62
  45604002-45604001           0.64      0.66      0.64      0.68         0.64
  45605001-45604002           0.66      0.70      0.66      0.74         0.66
  45606002-45603002           0.23      0.23      0.28      0.05         0.01
  45606003-45606002           0.23      0.23      0.23      0.01         0.01
  45607001-45602005           0.24      0.24      0.31      0.01         0.01
  45607002-45607001           0.22      0.22      0.24      0.01         0.01
  45612006-45612005           0.69      0.69      0.80      0.01         0.01
  45612005-45612004           0.76      0.80      0.76      0.87         0.72
  45613003-45612003           0.42      0.48      0.42      0.37         0.19
  45613004-45613003           0.48      0.60      0.48      0.50         0.24
  45613006-45612006           0.67      0.67      0.69      0.03         0.01
  45613007-45613006           0.67      0.82      0.67      0.19         0.09
  45701002-42204009           0.01      0.01      0.04      0.01         0.01
  45701013-42204015           0.34      0.47      0.34      0.47         0.34
  45702004-45701013           0.47      0.61      0.47      0.61         0.47
  BchGate-45702004            0.61      0.85      0.61      0.85         0.61
  45703002-45703001           0.73      1.11      0.73      1.13         0.73
  45703003-45703002           1.05      1.05      1.11      0.77         0.74
  45704001-45813002           1.27      1.28      1.27      1.29         1.27
  45706001-45703003           0.98      0.98      1.05      0.49         0.50
  45706002-45706001           0.16      0.16      0.98      0.01         0.01
  45708002-42205013           0.67      0.77      0.67      0.80         0.67
  45708003-45708002           0.77      0.83      0.77      0.87         0.77
  45709008-45709009           0.41      0.45      0.41      0.56         0.41
  45709009-45709010           0.13      0.41      0.13      0.55         0.13
  45709010-45709039           0.13      0.13      0.18      0.10         0.09
  45709011-45709012           0.21      0.21      0.73      0.01         0.01
  45709012-45709041           0.93      0.94      0.93      1.19         0.92
  45709013-45709012           0.86      0.86      0.94      0.48         0.17
  45709035-45709042           0.92      0.92      0.92      1.02         0.89
  45709037-45709038           0.01      0.01      0.04      0.01         0.01
  45709038-45709039           0.04      0.04      0.14      0.01         0.01
  45709039-45709011           0.18      0.18      0.21      0.01         0.06
  45709041-45709035           0.92      0.93      0.92      1.29         0.89
  45709042-45708003           0.79      0.92      0.79      1.03         0.79
  45710001-45709013           0.84      0.84      0.86      0.59         0.23
  45710002-45710001           0.79      0.79      0.84      0.57         0.20
  45710003-45710002           0.37      0.37      0.38      0.01         0.01
  45711001-45706002           0.16      0.50      0.16      0.50         0.16
  45711002-45711001           0.50      0.54      0.50      0.56         0.50
  45714001-45715006           0.44      0.44      0.54      0.30         0.01
  45714002-45711002           0.54      0.58      0.54      0.60         0.54
  45714003-45714002           0.58      0.63      0.58      0.79         0.58
  45715001-45710003           0.36      0.36      0.37      0.01         0.01
  45715002-45715001           0.35      0.35      0.36      0.01         0.01
  45715003-45715002           0.34      0.34      0.35      0.06         0.01
  45715004-45715003           0.33      0.33      0.34      0.01         0.01
  45715005-45710002           0.64      0.64      0.79      0.38         0.01
  45715006-45715005           0.54      0.54      0.64      0.35         0.01
  45805002-45805019           0.01      0.01      0.01      0.58         0.01
  45805003-45805002           0.80      0.80      0.86      0.01         0.01
  45805003-45805006           1.07      1.07      1.08      0.01         0.01
  45805004-45805017           1.10      1.10      1.11      0.01         0.01
  45805005-45805004           1.09      1.09      1.10      0.01         0.01
  45805006-45805005           1.08      1.08      1.09      0.01         0.01
  45805010-45805011           0.01      0.01      0.96      0.01         0.01
  45805011-45805003           1.02      1.02      1.06      0.01         0.01
  45805012-45805011           0.42      0.42      0.94      0.01         0.01
  45805013-45805012           0.01      0.01      0.42      0.01         0.01
  45805017-45811005           1.11      1.11      1.13      0.01         0.01
  45811005-45812002           1.13      1.13      1.14      0.01         0.01
  45812002-45813001           1.14      1.14      1.15      0.01         0.01
  45813001-45813002           1.15      1.15      1.18      0.01         0.01
  45813002-45814001           1.18      1.27      1.18      1.28         1.18
  45814001-45703002           1.11      1.18      1.11      1.18         1.11
  47201001-45704001           1.28      1.32      1.28      1.34         1.28
  47207001-47208001           1.34      1.45      1.34      1.54         1.34
  47208001-47201001           1.32      1.34      1.32      1.37         1.32
  47210001-47207001           1.43      1.43      1.45      1.32         1.32
  47211001-47210001           1.42      1.42      1.43      1.02         1.03
  47213001-47211002           1.47      1.47      1.50      0.93         0.94
  47211002-47211001           1.42      1.50      1.42      1.18         1.02
  47401003-45504014B          0.57      0.92      0.57      0.75         0.40
  50503001-50614004           0.84      0.84      0.98      0.01         0.01
  50503004-50503001           0.77      0.77      0.84      0.01         0.01
  50503005-50503004           0.68      0.68      0.76      0.01         0.01
  50504002-50503005           0.60      0.60      0.68      0.01         0.01
  50504003-50504002           0.54      0.54      0.60      0.01         0.01
  50504006-50504003           0.50      0.50      0.54      0.01         0.01
  50504007-50504006           0.47      0.47      0.50      0.01         0.01
  50505003-50504007           0.46      0.46      0.47      0.01         0.01
  50505004-50505003           0.45      0.45      0.46      0.48         0.39
  50505005-50505004           0.44      0.44      0.45      0.01         0.01
  50505007-50505005           0.41      0.41      0.44      0.01         0.01
  50505008-50505007           0.37      0.37      0.41      0.01         0.01
  50613009-50613012           0.41      0.41      0.67      0.01         0.01
  50613012-50614010           0.69      0.73      0.69      0.83         0.46
  50613013-50613012           0.64      0.64      0.73      0.01         0.01
  50613014-50613013           0.64      0.64      0.64      0.05         0.01
  50613015-50613014           0.63      0.63      0.64      0.01         0.01
  50614002-50613009           0.01      0.01      0.41      0.01         0.01
  50614003-50615005           1.00      1.00      1.16      0.01         0.01
  50614004-50614003           0.95      0.95      1.00      0.01         0.01
  50614005-50614004           0.66      0.66      0.76      0.01         0.01
  50614009-50614005           0.66      0.66      0.66      1.02         0.51
  50614010-50614009           0.66      0.69      0.66      0.51         0.14
  50615001-50616002           1.49      1.51      1.49      1.03         0.68
  50615002-50615001           0.97      0.97      1.06      0.01         0.01
  50615003-50615002           0.97      1.12      0.97      0.55         0.38
  50615004-50615003           1.12      1.18      1.12      0.74         0.56
  50615005-50615004           1.16      1.16      1.18      0.65         0.58
  50616001-47213001           1.47      1.52      1.47      1.12         0.92
  50616002-50616001           1.49      1.49      1.52      0.86         0.69
  52315001-52402001           0.31      0.31      0.34      0.01         0.01
  52315002-52315001           0.21      0.21      0.31      0.01         0.01
  52315003-52315002           0.04      0.04      0.21      0.01         0.01
  52316009-50613015           0.63      0.63      0.63      0.09         0.01
  52316016-52316009           0.63      0.75      0.63      0.44         0.26
  52316017-52401001           0.56      0.56      0.56      0.23         0.06
  52316018-52316017           0.47      0.47      0.53      0.01         0.01
  52401001-52316016           0.56      0.56      0.61      0.01         0.01
  52401002-52316016           0.49      0.49      0.58      0.01         0.01
  52401003-52401002           0.37      0.37      0.49      0.01         0.01
  52401004-52316018           0.35      0.35      0.87      0.01         0.01
  52401005-52401003           0.37      0.37      0.37      0.01         0.01
  52402001-52401004           0.34      0.34      0.35      0.01         0.01
  52408005-52409004           0.01      0.01      0.13      0.01         0.01
  52409002-52409003           0.29      0.29      0.41      0.01         0.01
  52409003-52409008           0.41      0.41      0.41      0.35         0.18
  52409004-52409002           0.13      0.13      0.29      0.01         0.01
  52409010-52409003           0.41      0.41      0.41      0.01         0.16
  50604011-50605008           0.01      0.01      1.49      0.01         0.01
  50505009-50505008           0.01      0.01      0.36      0.01         0.01
  52409008-52409011           0.41      0.41      0.94      0.01         0.01
  52315012-52315001           0.28      0.28      0.31      0.01         0.01
  52315018-52315017           0.01      0.01      0.12      0.01         0.01
  52315017-52315016           0.12      0.12      0.13      0.01         0.01
  52315016-52315015           0.13      0.13      0.23      0.01         0.01
  52315015-52315012           0.23      0.23      0.28      0.01         0.01
  506001-50615001             0.72      0.72      0.76      0.01         0.01
  506002-506001               0.68      0.68      0.72      0.01         0.01
  506003-506002               0.63      0.63      0.68      0.01         0.01
  506004-506003               0.58      0.58      0.63      0.01         0.01
  506005-506004               0.52      0.52      0.58      0.01         0.01
  506006-506005               0.01      0.01      0.54      0.01         0.01
  50511001-50506003           1.11      1.11      1.18      0.07         0.01
  50506003-50506002           1.18      1.18      1.22      0.09         0.01
  50506002-50506001           1.22      1.22      1.25      0.13         0.01
  50506001-50507001           1.25      1.25      1.28      0.47         0.01
  50507001-50502014           1.28      1.28      1.31      0.47         0.01
  50502014-50502013           1.31      1.31      1.35      0.46         0.01
  50502013-50502012           1.35      1.35      1.51      0.45         0.01
  50502012-50502011           1.51      1.51      1.56      0.40         0.43
  50502011-50502010           1.38      1.56      1.38      0.44         0.39
  50502010-50615001           1.38      1.38      1.51      0.01         0.01
  50512001-50511001           1.11      1.11      1.11      0.01         0.01
  50512002-50512001           1.11      1.15      1.11      0.13         0.01
  50512003-50512002           1.15      1.23      1.15      0.26         0.04
  52409012-50512003           1.23      1.29      1.23      0.33         0.13
  52409013-52409012           1.29      1.32      1.29      0.42         0.18
  52409015-52409013           1.19      1.19      1.27      0.01         0.01
  52409011-52409015           0.43      0.43      0.97      0.01         0.01
  52416004-52416003           1.43      1.46      1.43      1.47         1.43
  52416003-52416002           1.41      1.43      1.41      1.45         1.41
  52416002-52416001           1.40      1.41      1.40      1.43         1.39
  52416001-52409014           1.34      1.40      1.34      1.40         1.34
  52501001-52416004           1.46      1.50      1.46      1.50         1.46
  52502001-52501001           1.50      1.51      1.50      0.48         0.46
  52508001-52501002           1.23      1.23      1.30      0.01         0.01
  52508002-52508001           1.17      1.17      1.23      0.01         0.01
  52508003-52508002           1.11      1.11      1.17      0.01         0.01
  50405001-50405003           1.03      1.03      1.05      0.01         0.01
  50405003-50405002           1.05      1.05      1.06      0.01         0.01
  50405002-52508003           1.06      1.06      1.11      0.01         0.01
  52502004-52502003           1.62      1.67      1.62      1.67         1.62
  52502003-52502002           1.53      1.62      1.53      1.62         1.53
  52502002-52502001           1.35      1.53      1.35      1.53         1.35
  52501002-52502001           1.30      1.30      1.36      0.01         0.01
  52503001-52502004           1.66      1.68      1.66      1.69         1.66
  52503002-52503001           1.68      1.78      1.68      1.77         1.68
  52503003-52503002           1.55      1.79      1.55      1.79         1.55
  52504001-52503003           1.79      1.85      1.79      1.85         1.79
  52505001-52504001           1.85      1.89      1.85      1.89         1.85
  52505002-52505001           1.89      1.92      1.89      1.92         1.89
  52505003-52505002           1.92      1.95      1.92      1.95         1.92
  52512001-52505003           1.95      1.97      1.95      1.97         1.95
  55409001-52512001           1.97      1.99      1.97      1.99         1.97
  55409002-55409001           1.99      2.00      1.99      2.00         1.99
  52409014-52409013           1.24      1.34      1.24      1.35         1.24
  42010001-42101017           0.01      0.04      0.01      0.03         0.01
  42107011-42107009           0.01      0.01      0.01      0.09         0.01
  42111001-42107011           0.01      0.08      0.01      0.12         0.01
  
  
  ***************
  Pumping Summary
  ***************
  
  ---------------------------------------------------------------------------------------------------------
                                                  Min       Avg       Max     Total     Power    % Time Off
                        Percent   Number of      Flow      Flow      Flow    Volume     Usage    Pump Curve
  Pump                 Utilized   Start-Ups       CFS       CFS       CFS  10^6 gal     Kw-hr    Low   High
  ---------------------------------------------------------------------------------------------------------
  PUMP@40903015-41005008    72.08           1      0.00      1.52      3.05     0.053      6.12    0.0  100.0
  PUMP@47008013-45905012    93.03           1      0.00      0.22      0.22     0.010      2.60    0.0    0.0
  PUMP@45904018-45904015    99.58           1      0.00      0.11      0.11     0.006      0.32    0.0    0.0
  PUMP@46908034-46908026    99.01           1      0.00      0.33      0.40     0.015      1.73    0.0    0.0
  PUMP@47706005-47703003   100.00           1      0.00      0.11      0.15     0.005      0.23    0.0    0.0
  PUMP@47714007-47711008    97.72           1      0.00      0.01      0.02     0.001      0.03    0.0    0.0
  PUMP@50605008-50605003   100.00           1      0.00      0.01      0.01     0.001      0.08  100.0    0.0
  PUMP@51001004-46804018    98.28           1      0.00      0.06      0.07     0.002      0.32    0.0    0.0
  PUMP@52409011-50505009    94.37           1      0.00      0.33      0.70     0.013      0.62   57.0   22.8
  PUMP@55814017-55810001   100.00           1      0.00      0.54      0.70     0.025     14.02   58.5    0.0
  PUMP@56101027-56101007    85.77           1      0.00      0.18      0.23     0.007      0.71    0.0    0.0
  PUMP@57009013-55912006    98.56           1      0.00      0.06      0.07     0.003      0.23  100.0    0.0
  PUMP@57016016-55804006   100.00           1      0.00      0.06      0.09     0.003      0.51   72.2    0.0
  PUMP@42101039-LM4MiPS     2.00           1      0.00      0.01      0.03     0.000      0.00  100.0    0.0
  

  Analysis begun on:  Tue Jun 23 20:41:21 2026
  Analysis ended on:  Tue Jun 23 20:41:32 2026
  Total elapsed time: 00:00:11