
  EPA STORM WATER MANAGEMENT MODEL - VERSION 5.2 (Build 5.2.4)
  ------------------------------------------------------------

  WARNING 04: minimum elevation drop used for Conduit 101
  WARNING 04: minimum elevation drop used for Conduit 103
  WARNING 04: minimum elevation drop used for Conduit 105
  WARNING 04: minimum elevation drop used for Conduit 107
  WARNING 04: minimum elevation drop used for Conduit 109
  WARNING 04: minimum elevation drop used for Conduit 111
  WARNING 04: minimum elevation drop used for Conduit 113
  WARNING 04: minimum elevation drop used for Conduit 115
  WARNING 04: minimum elevation drop used for Conduit 117
  WARNING 04: minimum elevation drop used for Conduit 119
  WARNING 04: minimum elevation drop used for Conduit 121
  WARNING 04: minimum elevation drop used for Conduit 123
  WARNING 04: minimum elevation drop used for Conduit 125
  WARNING 04: minimum elevation drop used for Conduit 127
  WARNING 04: minimum elevation drop used for Conduit 129
  WARNING 04: minimum elevation drop used for Conduit 131
  WARNING 04: minimum elevation drop used for Conduit 133
  WARNING 04: minimum elevation drop used for Conduit 135
  WARNING 04: minimum elevation drop used for Conduit 137
  WARNING 04: minimum elevation drop used for Conduit 139
  WARNING 04: minimum elevation drop used for Conduit 141
  WARNING 04: minimum elevation drop used for Conduit 143
  WARNING 04: minimum elevation drop used for Conduit 145
  WARNING 04: minimum elevation drop used for Conduit 147
  WARNING 04: minimum elevation drop used for Conduit 149
  WARNING 04: minimum elevation drop used for Conduit 151
  WARNING 04: minimum elevation drop used for Conduit 153
  WARNING 04: minimum elevation drop used for Conduit 155
  WARNING 04: minimum elevation drop used for Conduit 157
  WARNING 04: minimum elevation drop used for Conduit 159
  WARNING 04: minimum elevation drop used for Conduit 161
  WARNING 04: minimum elevation drop used for Conduit 163
  WARNING 04: minimum elevation drop used for Conduit 165
  WARNING 04: minimum elevation drop used for Conduit 167
  WARNING 04: minimum elevation drop used for Conduit 169
  WARNING 04: minimum elevation drop used for Conduit 17
  WARNING 04: minimum elevation drop used for Conduit 171
  WARNING 04: minimum elevation drop used for Conduit 173
  WARNING 04: minimum elevation drop used for Conduit 175
  WARNING 04: minimum elevation drop used for Conduit 177
  WARNING 04: minimum elevation drop used for Conduit 179
  WARNING 04: minimum elevation drop used for Conduit 181
  WARNING 04: minimum elevation drop used for Conduit 183
  WARNING 04: minimum elevation drop used for Conduit 185
  WARNING 04: minimum elevation drop used for Conduit 187
  WARNING 04: minimum elevation drop used for Conduit 189
  WARNING 04: minimum elevation drop used for Conduit 19
  WARNING 04: minimum elevation drop used for Conduit 191
  WARNING 04: minimum elevation drop used for Conduit 193
  WARNING 04: minimum elevation drop used for Conduit 195
  WARNING 04: minimum elevation drop used for Conduit 197
  WARNING 04: minimum elevation drop used for Conduit 199
  WARNING 04: minimum elevation drop used for Conduit 201
  WARNING 04: minimum elevation drop used for Conduit 203
  WARNING 04: minimum elevation drop used for Conduit 205
  WARNING 04: minimum elevation drop used for Conduit 207
  WARNING 04: minimum elevation drop used for Conduit 209
  WARNING 04: minimum elevation drop used for Conduit 21
  WARNING 04: minimum elevation drop used for Conduit 211
  WARNING 04: minimum elevation drop used for Conduit 213
  WARNING 04: minimum elevation drop used for Conduit 215
  WARNING 04: minimum elevation drop used for Conduit 217
  WARNING 04: minimum elevation drop used for Conduit 219
  WARNING 04: minimum elevation drop used for Conduit 221
  WARNING 04: minimum elevation drop used for Conduit 223
  WARNING 04: minimum elevation drop used for Conduit 225
  WARNING 04: minimum elevation drop used for Conduit 227
  WARNING 04: minimum elevation drop used for Conduit 229
  WARNING 04: minimum elevation drop used for Conduit 231
  WARNING 04: minimum elevation drop used for Conduit 233
  WARNING 04: minimum elevation drop used for Conduit 235
  WARNING 04: minimum elevation drop used for Conduit 237
  WARNING 04: minimum elevation drop used for Conduit 239
  WARNING 04: minimum elevation drop used for Conduit 241
  WARNING 04: minimum elevation drop used for Conduit 243
  WARNING 04: minimum elevation drop used for Conduit 245
  WARNING 04: minimum elevation drop used for Conduit 247
  WARNING 04: minimum elevation drop used for Conduit 249
  WARNING 04: minimum elevation drop used for Conduit 25
  WARNING 04: minimum elevation drop used for Conduit 251
  WARNING 04: minimum elevation drop used for Conduit 253
  WARNING 04: minimum elevation drop used for Conduit 255
  WARNING 04: minimum elevation drop used for Conduit 257
  WARNING 04: minimum elevation drop used for Conduit 259
  WARNING 04: minimum elevation drop used for Conduit 261
  WARNING 04: minimum elevation drop used for Conduit 263
  WARNING 04: minimum elevation drop used for Conduit 265
  WARNING 04: minimum elevation drop used for Conduit 267
  WARNING 04: minimum elevation drop used for Conduit 269
  WARNING 04: minimum elevation drop used for Conduit 27
  WARNING 04: minimum elevation drop used for Conduit 271
  WARNING 04: minimum elevation drop used for Conduit 273
  WARNING 04: minimum elevation drop used for Conduit 275
  WARNING 04: minimum elevation drop used for Conduit 277
  WARNING 04: minimum elevation drop used for Conduit 279
  WARNING 04: minimum elevation drop used for Conduit 281
  WARNING 04: minimum elevation drop used for Conduit 285
  WARNING 04: minimum elevation drop used for Conduit 287
  WARNING 04: minimum elevation drop used for Conduit 289
  WARNING 04: minimum elevation drop used for Conduit 29
  WARNING 04: minimum elevation drop used for Conduit 291
  WARNING 04: minimum elevation drop used for Conduit 293
  WARNING 04: minimum elevation drop used for Conduit 295
  WARNING 04: minimum elevation drop used for Conduit 297
  WARNING 04: minimum elevation drop used for Conduit 299
  WARNING 04: minimum elevation drop used for Conduit 301
  WARNING 04: minimum elevation drop used for Conduit 303
  WARNING 04: minimum elevation drop used for Conduit 305
  WARNING 04: minimum elevation drop used for Conduit 307
  WARNING 04: minimum elevation drop used for Conduit 309
  WARNING 04: minimum elevation drop used for Conduit 31
  WARNING 04: minimum elevation drop used for Conduit 311
  WARNING 04: minimum elevation drop used for Conduit 313
  WARNING 04: minimum elevation drop used for Conduit 315
  WARNING 04: minimum elevation drop used for Conduit 317
  WARNING 04: minimum elevation drop used for Conduit 319
  WARNING 04: minimum elevation drop used for Conduit 321
  WARNING 04: minimum elevation drop used for Conduit 323
  WARNING 04: minimum elevation drop used for Conduit 325
  WARNING 04: minimum elevation drop used for Conduit 327
  WARNING 04: minimum elevation drop used for Conduit 329
  WARNING 04: minimum elevation drop used for Conduit 33
  WARNING 04: minimum elevation drop used for Conduit 331
  WARNING 04: minimum elevation drop used for Conduit 333
  WARNING 04: minimum elevation drop used for Conduit 335
  WARNING 04: minimum elevation drop used for Conduit 337
  WARNING 04: minimum elevation drop used for Conduit 339
  WARNING 04: minimum elevation drop used for Conduit 341
  WARNING 04: minimum elevation drop used for Conduit 343
  WARNING 04: minimum elevation drop used for Conduit 345
  WARNING 04: minimum elevation drop used for Conduit 347
  WARNING 04: minimum elevation drop used for Conduit 349
  WARNING 04: minimum elevation drop used for Conduit 35
  WARNING 04: minimum elevation drop used for Conduit 351
  WARNING 04: minimum elevation drop used for Conduit 353
  WARNING 04: minimum elevation drop used for Conduit 355
  WARNING 04: minimum elevation drop used for Conduit 357
  WARNING 04: minimum elevation drop used for Conduit 359
  WARNING 04: minimum elevation drop used for Conduit 361
  WARNING 04: minimum elevation drop used for Conduit 363
  WARNING 04: minimum elevation drop used for Conduit 365
  WARNING 04: minimum elevation drop used for Conduit 367
  WARNING 04: minimum elevation drop used for Conduit 369
  WARNING 04: minimum elevation drop used for Conduit 37
  WARNING 04: minimum elevation drop used for Conduit 371
  WARNING 04: minimum elevation drop used for Conduit 373
  WARNING 04: minimum elevation drop used for Conduit 375
  WARNING 04: minimum elevation drop used for Conduit 377
  WARNING 04: minimum elevation drop used for Conduit 379
  WARNING 04: minimum elevation drop used for Conduit 381
  WARNING 04: minimum elevation drop used for Conduit 383
  WARNING 04: minimum elevation drop used for Conduit 385
  WARNING 04: minimum elevation drop used for Conduit 387
  WARNING 04: minimum elevation drop used for Conduit 389
  WARNING 04: minimum elevation drop used for Conduit 39
  WARNING 04: minimum elevation drop used for Conduit 391
  WARNING 04: minimum elevation drop used for Conduit 393
  WARNING 04: minimum elevation drop used for Conduit 395
  WARNING 04: minimum elevation drop used for Conduit 397
  WARNING 04: minimum elevation drop used for Conduit 399
  WARNING 04: minimum elevation drop used for Conduit 401
  WARNING 04: minimum elevation drop used for Conduit 403
  WARNING 04: minimum elevation drop used for Conduit 405
  WARNING 04: minimum elevation drop used for Conduit 407
  WARNING 04: minimum elevation drop used for Conduit 409
  WARNING 04: minimum elevation drop used for Conduit 41
  WARNING 04: minimum elevation drop used for Conduit 411
  WARNING 04: minimum elevation drop used for Conduit 413
  WARNING 04: minimum elevation drop used for Conduit 415
  WARNING 04: minimum elevation drop used for Conduit 417
  WARNING 04: minimum elevation drop used for Conduit 419
  WARNING 04: minimum elevation drop used for Conduit 421
  WARNING 04: minimum elevation drop used for Conduit 423
  WARNING 04: minimum elevation drop used for Conduit 425
  WARNING 04: minimum elevation drop used for Conduit 427
  WARNING 04: minimum elevation drop used for Conduit 429
  WARNING 04: minimum elevation drop used for Conduit 43
  WARNING 04: minimum elevation drop used for Conduit 431
  WARNING 04: minimum elevation drop used for Conduit 433
  WARNING 04: minimum elevation drop used for Conduit 435
  WARNING 04: minimum elevation drop used for Conduit 437
  WARNING 04: minimum elevation drop used for Conduit 439
  WARNING 04: minimum elevation drop used for Conduit 441
  WARNING 04: minimum elevation drop used for Conduit 443
  WARNING 04: minimum elevation drop used for Conduit 445
  WARNING 04: minimum elevation drop used for Conduit 447
  WARNING 04: minimum elevation drop used for Conduit 449
  WARNING 04: minimum elevation drop used for Conduit 45
  WARNING 04: minimum elevation drop used for Conduit 451
  WARNING 04: minimum elevation drop used for Conduit 453
  WARNING 04: minimum elevation drop used for Conduit 455
  WARNING 04: minimum elevation drop used for Conduit 457
  WARNING 04: minimum elevation drop used for Conduit 459
  WARNING 04: minimum elevation drop used for Conduit 461
  WARNING 04: minimum elevation drop used for Conduit 463
  WARNING 04: minimum elevation drop used for Conduit 465
  WARNING 04: minimum elevation drop used for Conduit 467
  WARNING 04: minimum elevation drop used for Conduit 469
  WARNING 04: minimum elevation drop used for Conduit 47
  WARNING 04: minimum elevation drop used for Conduit 471
  WARNING 04: minimum elevation drop used for Conduit 473
  WARNING 04: minimum elevation drop used for Conduit 475
  WARNING 04: minimum elevation drop used for Conduit 477
  WARNING 04: minimum elevation drop used for Conduit 479
  WARNING 04: minimum elevation drop used for Conduit 481
  WARNING 04: minimum elevation drop used for Conduit 483
  WARNING 04: minimum elevation drop used for Conduit 485
  WARNING 04: minimum elevation drop used for Conduit 487
  WARNING 04: minimum elevation drop used for Conduit 489
  WARNING 04: minimum elevation drop used for Conduit 49
  WARNING 04: minimum elevation drop used for Conduit 491
  WARNING 04: minimum elevation drop used for Conduit 493
  WARNING 04: minimum elevation drop used for Conduit 495
  WARNING 04: minimum elevation drop used for Conduit 497
  WARNING 04: minimum elevation drop used for Conduit 499
  WARNING 04: minimum elevation drop used for Conduit 501
  WARNING 04: minimum elevation drop used for Conduit 503
  WARNING 04: minimum elevation drop used for Conduit 505
  WARNING 04: minimum elevation drop used for Conduit 507
  WARNING 04: minimum elevation drop used for Conduit 509
  WARNING 04: minimum elevation drop used for Conduit 51
  WARNING 04: minimum elevation drop used for Conduit 511
  WARNING 04: minimum elevation drop used for Conduit 513
  WARNING 04: minimum elevation drop used for Conduit 515
  WARNING 04: minimum elevation drop used for Conduit 517
  WARNING 04: minimum elevation drop used for Conduit 519
  WARNING 04: minimum elevation drop used for Conduit 521
  WARNING 04: minimum elevation drop used for Conduit 523
  WARNING 04: minimum elevation drop used for Conduit 525
  WARNING 04: minimum elevation drop used for Conduit 527
  WARNING 04: minimum elevation drop used for Conduit 529
  WARNING 04: minimum elevation drop used for Conduit 53
  WARNING 04: minimum elevation drop used for Conduit 531
  WARNING 04: minimum elevation drop used for Conduit 533
  WARNING 04: minimum elevation drop used for Conduit 535
  WARNING 04: minimum elevation drop used for Conduit 537
  WARNING 04: minimum elevation drop used for Conduit 539
  WARNING 04: minimum elevation drop used for Conduit 541
  WARNING 04: minimum elevation drop used for Conduit 543
  WARNING 04: minimum elevation drop used for Conduit 545
  WARNING 04: minimum elevation drop used for Conduit 547
  WARNING 04: minimum elevation drop used for Conduit 549
  WARNING 04: minimum elevation drop used for Conduit 55
  WARNING 04: minimum elevation drop used for Conduit 551
  WARNING 04: minimum elevation drop used for Conduit 553
  WARNING 04: minimum elevation drop used for Conduit 555
  WARNING 04: minimum elevation drop used for Conduit 557
  WARNING 04: minimum elevation drop used for Conduit 559
  WARNING 04: minimum elevation drop used for Conduit 561
  WARNING 04: minimum elevation drop used for Conduit 563
  WARNING 04: minimum elevation drop used for Conduit 565
  WARNING 04: minimum elevation drop used for Conduit 567
  WARNING 04: minimum elevation drop used for Conduit 569
  WARNING 04: minimum elevation drop used for Conduit 57
  WARNING 04: minimum elevation drop used for Conduit 571
  WARNING 04: minimum elevation drop used for Conduit 573
  WARNING 04: minimum elevation drop used for Conduit 575
  WARNING 04: minimum elevation drop used for Conduit 577
  WARNING 04: minimum elevation drop used for Conduit 579
  WARNING 04: minimum elevation drop used for Conduit 581
  WARNING 04: minimum elevation drop used for Conduit 583
  WARNING 04: minimum elevation drop used for Conduit 585
  WARNING 04: minimum elevation drop used for Conduit 587
  WARNING 04: minimum elevation drop used for Conduit 589
  WARNING 04: minimum elevation drop used for Conduit 59
  WARNING 04: minimum elevation drop used for Conduit 591
  WARNING 04: minimum elevation drop used for Conduit 593
  WARNING 04: minimum elevation drop used for Conduit 595
  WARNING 04: minimum elevation drop used for Conduit 597
  WARNING 04: minimum elevation drop used for Conduit 599
  WARNING 04: minimum elevation drop used for Conduit 601
  WARNING 04: minimum elevation drop used for Conduit 603
  WARNING 04: minimum elevation drop used for Conduit 605
  WARNING 04: minimum elevation drop used for Conduit 607
  WARNING 04: minimum elevation drop used for Conduit 609
  WARNING 04: minimum elevation drop used for Conduit 61
  WARNING 04: minimum elevation drop used for Conduit 611
  WARNING 04: minimum elevation drop used for Conduit 613
  WARNING 08: elevation drop exceeds length for Conduit 615
  WARNING 04: minimum elevation drop used for Conduit 617
  WARNING 04: minimum elevation drop used for Conduit 619
  WARNING 04: minimum elevation drop used for Conduit 621
  WARNING 04: minimum elevation drop used for Conduit 623
  WARNING 04: minimum elevation drop used for Conduit 625
  WARNING 04: minimum elevation drop used for Conduit 627
  WARNING 04: minimum elevation drop used for Conduit 629
  WARNING 04: minimum elevation drop used for Conduit 63
  WARNING 04: minimum elevation drop used for Conduit 631
  WARNING 04: minimum elevation drop used for Conduit 633
  WARNING 04: minimum elevation drop used for Conduit 635
  WARNING 04: minimum elevation drop used for Conduit 637
  WARNING 04: minimum elevation drop used for Conduit 641
  WARNING 04: minimum elevation drop used for Conduit 643
  WARNING 04: minimum elevation drop used for Conduit 645
  WARNING 04: minimum elevation drop used for Conduit 647
  WARNING 04: minimum elevation drop used for Conduit 65
  WARNING 04: minimum elevation drop used for Conduit 651
  WARNING 04: minimum elevation drop used for Conduit 653
  WARNING 04: minimum elevation drop used for Conduit 655
  WARNING 04: minimum elevation drop used for Conduit 657
  WARNING 04: minimum elevation drop used for Conduit 659
  WARNING 04: minimum elevation drop used for Conduit 661
  WARNING 04: minimum elevation drop used for Conduit 663
  WARNING 04: minimum elevation drop used for Conduit 665
  WARNING 04: minimum elevation drop used for Conduit 667
  WARNING 04: minimum elevation drop used for Conduit 669
  WARNING 04: minimum elevation drop used for Conduit 67
  WARNING 04: minimum elevation drop used for Conduit 671
  WARNING 04: minimum elevation drop used for Conduit 673
  WARNING 04: minimum elevation drop used for Conduit 675
  WARNING 04: minimum elevation drop used for Conduit 677
  WARNING 04: minimum elevation drop used for Conduit 679
  WARNING 04: minimum elevation drop used for Conduit 681
  WARNING 04: minimum elevation drop used for Conduit 683
  WARNING 04: minimum elevation drop used for Conduit 685
  WARNING 04: minimum elevation drop used for Conduit 687
  WARNING 04: minimum elevation drop used for Conduit 689
  WARNING 04: minimum elevation drop used for Conduit 69
  WARNING 04: minimum elevation drop used for Conduit 691
  WARNING 04: minimum elevation drop used for Conduit 693
  WARNING 04: minimum elevation drop used for Conduit 695
  WARNING 04: minimum elevation drop used for Conduit 697
  WARNING 04: minimum elevation drop used for Conduit 699
  WARNING 04: minimum elevation drop used for Conduit 701
  WARNING 04: minimum elevation drop used for Conduit 703
  WARNING 04: minimum elevation drop used for Conduit 705
  WARNING 04: minimum elevation drop used for Conduit 707
  WARNING 04: minimum elevation drop used for Conduit 709
  WARNING 04: minimum elevation drop used for Conduit 71
  WARNING 04: minimum elevation drop used for Conduit 711
  WARNING 04: minimum elevation drop used for Conduit 713
  WARNING 04: minimum elevation drop used for Conduit 715
  WARNING 04: minimum elevation drop used for Conduit 717
  WARNING 04: minimum elevation drop used for Conduit 719
  WARNING 04: minimum elevation drop used for Conduit 721
  WARNING 04: minimum elevation drop used for Conduit 723
  WARNING 04: minimum elevation drop used for Conduit 725
  WARNING 04: minimum elevation drop used for Conduit 727
  WARNING 04: minimum elevation drop used for Conduit 729
  WARNING 04: minimum elevation drop used for Conduit 73
  WARNING 04: minimum elevation drop used for Conduit 731
  WARNING 04: minimum elevation drop used for Conduit 733
  WARNING 04: minimum elevation drop used for Conduit 735
  WARNING 04: minimum elevation drop used for Conduit 737
  WARNING 04: minimum elevation drop used for Conduit 739
  WARNING 04: minimum elevation drop used for Conduit 741
  WARNING 04: minimum elevation drop used for Conduit 743
  WARNING 04: minimum elevation drop used for Conduit 745
  WARNING 04: minimum elevation drop used for Conduit 747
  WARNING 04: minimum elevation drop used for Conduit 749
  WARNING 04: minimum elevation drop used for Conduit 75
  WARNING 04: minimum elevation drop used for Conduit 751
  WARNING 04: minimum elevation drop used for Conduit 753
  WARNING 04: minimum elevation drop used for Conduit 755
  WARNING 04: minimum elevation drop used for Conduit 757
  WARNING 04: minimum elevation drop used for Conduit 759
  WARNING 04: minimum elevation drop used for Conduit 761
  WARNING 04: minimum elevation drop used for Conduit 763
  WARNING 04: minimum elevation drop used for Conduit 765
  WARNING 04: minimum elevation drop used for Conduit 767
  WARNING 04: minimum elevation drop used for Conduit 769
  WARNING 04: minimum elevation drop used for Conduit 77
  WARNING 04: minimum elevation drop used for Conduit 771
  WARNING 04: minimum elevation drop used for Conduit 773
  WARNING 04: minimum elevation drop used for Conduit 775
  WARNING 04: minimum elevation drop used for Conduit 779
  WARNING 04: minimum elevation drop used for Conduit 781
  WARNING 04: minimum elevation drop used for Conduit 783
  WARNING 08: elevation drop exceeds length for Conduit 785
  WARNING 04: minimum elevation drop used for Conduit 787
  WARNING 04: minimum elevation drop used for Conduit 79
  WARNING 04: minimum elevation drop used for Conduit 81
  WARNING 04: minimum elevation drop used for Conduit 83
  WARNING 04: minimum elevation drop used for Conduit 85
  WARNING 04: minimum elevation drop used for Conduit 87
  WARNING 04: minimum elevation drop used for Conduit 91
  WARNING 04: minimum elevation drop used for Conduit 93
  WARNING 04: minimum elevation drop used for Conduit 95
  WARNING 04: minimum elevation drop used for Conduit 97
  WARNING 04: minimum elevation drop used for Conduit 99
  WARNING 02: maximum depth increased for Node NL_638
  WARNING 02: maximum depth increased for Node NL_784
  
  ****************
  Analysis Options
  ****************
  Flow Units ............... CFS
  Process Models:
    Rainfall/Runoff ........ NO
    RDII ................... NO
    Snowmelt ............... NO
    Groundwater ............ NO
    Flow Routing ........... YES
    Ponding Allowed ........ NO
    Water Quality .......... NO
  Flow Routing Method ...... DYNWAVE
  Surcharge Method ......... EXTRAN
  Starting Date ............ 01/01/2002 00:00:00
  Ending Date .............. 01/02/2002 12:00:00
  Antecedent Dry Days ...... 5.0
  Report Time Step ......... 00:05:00
  Routing Time Step ........ 60.00 sec
  Variable Time Step ....... YES
  Maximum Trials ........... 8
  Number of Threads ........ 8
  Head Tolerance ........... 0.001000 ft
  
  
  **************************        Volume        Volume
  Flow Routing Continuity        acre-feet      10^6 gal
  **************************     ---------     ---------
  Dry Weather Inflow .......        21.183         6.903
  Wet Weather Inflow .......         0.000         0.000
  Groundwater Inflow .......         0.000         0.000
  RDII Inflow ..............         0.000         0.000
  External Inflow ..........         0.000         0.000
  External Outflow .........         4.596         1.498
  Flooding Loss ............        14.740         4.803
  Evaporation Loss .........         0.000         0.000
  Exfiltration Loss ........         0.000         0.000
  Initial Stored Volume ....         0.004         0.001
  Final Stored Volume ......         1.976         0.644
  Continuity Error (%) .....        -0.587
  
  
  *************************
  Highest Continuity Errors
  *************************
  Node NL_782 (16.97%)
  Node NL_564 (14.04%)
  Node NL_96 (10.82%)
  Node 9008 (-10.60%)
  Node 9006 (-10.29%)
  
  
  ***************************
  Time-Step Critical Elements
  ***************************
  Link 407 (34.01%)
  Link 267 (16.09%)
  Node 9008 (9.89%)
  Link 783 (8.42%)
  Node 9006 (3.05%)
  
  
  ********************************
  Highest Flow Instability Indexes
  ********************************
  Link 413 (48)
  Link 415 (48)
  Link 267 (47)
  Link 167 (44)
  Link 165 (44)
  
  
  *********************************
  Most Frequent Nonconverging Nodes
  *********************************
  Node 94 (86.21%)
  Node NL_622 (75.45%)
  Node NL_272 (75.38%)
  Node NL_620 (75.38%)
  Node NL_626 (72.88%)
  
  
  *************************
  Routing Time Step Summary
  *************************
  Minimum Time Step           :     0.31 sec
  Average Time Step           :    17.19 sec
  Maximum Time Step           :    49.71 sec
  % of Time in Steady State   :     0.00
  Average Iterations per Step :     7.22
  % of Steps Not Converging   :    86.21
  Time Step Frequencies       :
     60.000 -  6.645 sec      :    87.47 %
      6.645 -  0.736 sec      :    12.51 %
      0.736 -  0.082 sec      :     0.03 %
      0.082 -  0.009 sec      :     0.00 %
      0.009 -  0.001 sec      :     0.00 %
  
  
  ******************
  Node Depth Summary
  ******************
  
  ---------------------------------------------------------------------------------
                                 Average  Maximum  Maximum  Time of Max    Reported
                                   Depth    Depth      HGL   Occurrence   Max Depth
  Node                 Type         Feet     Feet     Feet  days hr:min        Feet
  ---------------------------------------------------------------------------------
  20                   JUNCTION     4.89     7.07   107.07     1  07:41        7.07
  22                   JUNCTION     6.77     8.99   108.99     1  07:14        8.98
  24                   JUNCTION     7.70     9.92   109.92     0  07:24        9.88
  26                   JUNCTION     8.14    10.00   110.00     0  07:22       10.00
  28                   JUNCTION     8.16    10.00   110.00     0  07:01       10.00
  30                   JUNCTION     8.41    10.00   110.00     0  06:32       10.00
  32                   JUNCTION     8.38    10.00   110.00     0  07:00       10.00
  34                   JUNCTION     8.60    10.00   110.00     0  06:03       10.00
  36                   JUNCTION     7.74    10.00   110.00     0  07:23       10.00
  38                   JUNCTION     5.63     9.93   109.93     1  07:00        9.15
  40                   JUNCTION     7.73    10.00   110.00     0  07:22        9.84
  42                   JUNCTION     7.97    10.00   110.00     0  07:22        9.98
  44                   JUNCTION     8.13    10.00   110.00     0  07:00       10.00
  46                   JUNCTION     7.78    10.00   110.00     0  07:21       10.00
  48                   JUNCTION     7.72    10.00   110.00     0  07:20       10.00
  50                   JUNCTION     7.70    10.00   110.00     0  07:20       10.00
  52                   JUNCTION     7.69    10.00   110.00     0  07:18       10.00
  54                   JUNCTION     7.80    10.00   110.00     0  07:21       10.00
  56                   JUNCTION     8.24    10.00   110.00     0  07:00       10.00
  58                   JUNCTION     8.24    10.00   110.00     0  06:46       10.00
  60                   JUNCTION     8.34    10.00   110.00     0  06:33       10.00
  62                   JUNCTION     8.35    10.00   110.00     0  06:33       10.00
  64                   JUNCTION     3.65     7.99   107.99     1  07:10        7.41
  66                   JUNCTION     3.58     7.52   107.52     1  07:21        7.26
  68                   JUNCTION     6.00     9.84   109.84     1  07:20        9.84
  70                   JUNCTION     7.15    10.00   110.00     0  07:36       10.00
  72                   JUNCTION     6.01     9.92   109.92     1  07:19        9.92
  74                   JUNCTION     7.27    10.00   110.00     0  07:22       10.00
  76                   JUNCTION     7.35    10.00   110.00     0  07:13       10.00
  78                   JUNCTION     7.35    10.00   110.00     0  07:10       10.00
  80                   JUNCTION     7.37    10.00   110.00     0  07:09       10.00
  82                   JUNCTION     6.15    10.00   110.00     0  20:21       10.00
  84                   JUNCTION     1.42     3.05   103.05     0  17:37        2.73
  86                   JUNCTION     1.51     4.15   104.15     1  07:10        2.86
  88                   JUNCTION     2.11     4.35   104.35     1  07:10        4.21
  90                   JUNCTION     2.18     4.83   104.83     1  07:10        4.43
  92                   JUNCTION     6.11    10.00   110.00     1  07:21        9.98
  NL_100               JUNCTION     7.71    10.00   110.00     0  07:20       10.00
  NL_102               JUNCTION     7.68    10.00   110.00     0  07:20       10.00
  NL_104               JUNCTION     7.67    10.00   110.00     0  07:20       10.00
  NL_106               JUNCTION     7.67    10.00   110.00     0  07:20       10.00
  NL_108               JUNCTION     7.67    10.00   110.00     0  07:20       10.00
  NL_110               JUNCTION     7.67    10.00   110.00     0  07:20       10.00
  NL_112               JUNCTION     7.68    10.00   110.00     0  07:20       10.00
  NL_114               JUNCTION     7.69    10.00   110.00     0  07:20       10.00
  NL_116               JUNCTION     7.70    10.00   110.00     0  07:20       10.00
  NL_118               JUNCTION     7.74    10.00   110.00     0  07:20       10.00
  NL_120               JUNCTION     7.76    10.00   110.00     0  07:20       10.00
  NL_122               JUNCTION     7.79    10.00   110.00     0  07:21       10.00
  NL_124               JUNCTION     7.79    10.00   110.00     0  07:21       10.00
  NL_126               JUNCTION     7.78    10.00   110.00     0  07:21       10.00
  NL_128               JUNCTION     7.78    10.00   110.00     0  07:21       10.00
  NL_130               JUNCTION     7.78    10.00   110.00     0  07:21       10.00
  NL_132               JUNCTION     7.78    10.00   110.00     0  07:21       10.00
  NL_134               JUNCTION     7.78    10.00   110.00     0  07:21       10.00
  NL_136               JUNCTION     7.77    10.00   110.00     0  07:22       10.00
  NL_138               JUNCTION     7.75    10.00   110.00     0  07:22       10.00
  NL_140               JUNCTION     7.74    10.00   110.00     0  07:22        9.98
  NL_142               JUNCTION     7.73    10.00   110.00     0  07:22        9.96
  NL_144               JUNCTION     7.72    10.00   110.00     0  07:22        9.91
  NL_146               JUNCTION     7.73    10.00   110.00     0  07:22        9.88
  NL_148               JUNCTION     8.10    10.00   110.00     0  07:22       10.00
  NL_150               JUNCTION     8.06    10.00   110.00     0  07:22       10.00
  NL_152               JUNCTION     8.04    10.00   110.00     0  07:22       10.00
  NL_154               JUNCTION     8.01    10.00   110.00     0  07:22        9.99
  NL_156               JUNCTION     5.53     8.88   108.88     0  07:45        8.87
  NL_158               JUNCTION     5.43     8.60   108.60     1  07:40        8.60
  NL_160               JUNCTION     5.33     8.32   108.32     0  07:54        8.31
  NL_162               JUNCTION     5.26     8.11   108.11     1  07:49        8.10
  NL_164               JUNCTION     5.18     7.89   107.89     1  07:56        7.89
  NL_166               JUNCTION     5.10     7.67   107.67     1  07:53        7.66
  NL_168               JUNCTION     5.00     7.37   107.37     1  07:49        7.37
  NL_170               JUNCTION     4.95     7.22   107.22     0  07:45        7.22
  NL_172               JUNCTION     7.50     9.81   109.81     0  07:22        9.65
  NL_174               JUNCTION     7.30     9.58   109.58     0  07:22        9.47
  NL_176               JUNCTION     7.03     9.25   109.25     0  07:22        9.22
  NL_178               JUNCTION     7.85    10.00   110.00     0  07:22        9.90
  NL_180               JUNCTION     2.01     2.80   102.80     0  07:43        2.80
  NL_182               JUNCTION     3.54     5.07   105.07     1  07:49        5.06
  NL_184               JUNCTION     5.50     7.69   107.69     0  07:45        7.69
  NL_186               JUNCTION     6.10     8.31   108.31     1  07:44        8.30
  NL_188               JUNCTION     6.97     9.20   109.20     1  07:14        9.18
  NL_190               JUNCTION     7.18     9.41   109.41     1  07:14        9.38
  NL_192               JUNCTION     7.43     9.65   109.65     1  07:14        9.63
  NL_194               JUNCTION     7.72     9.99   109.99     0  07:24        9.96
  NL_196               JUNCTION     7.71     9.98   109.98     0  07:24        9.93
  NL_198               JUNCTION     7.70     9.96   109.96     0  07:24        9.90
  NL_200               JUNCTION     7.82     9.95   109.95     0  07:24        9.91
  NL_202               JUNCTION     7.98     9.98   109.98     0  07:24        9.96
  NL_204               JUNCTION     8.13    10.00   110.00     0  07:22       10.00
  NL_206               JUNCTION     8.14    10.00   110.00     0  07:22       10.00
  NL_208               JUNCTION     8.20    10.00   110.00     0  07:22       10.00
  NL_210               JUNCTION     8.28    10.00   110.00     0  07:22       10.00
  NL_212               JUNCTION     8.38    10.00   110.00     0  07:00       10.00
  NL_214               JUNCTION     8.40    10.00   110.00     0  07:00       10.00
  NL_216               JUNCTION     8.40    10.00   110.00     0  07:00       10.00
  NL_218               JUNCTION     8.42    10.00   110.00     0  07:00       10.00
  NL_220               JUNCTION     8.44    10.00   110.00     0  07:00       10.00
  NL_222               JUNCTION     8.47    10.00   110.00     0  07:00       10.00
  NL_224               JUNCTION     8.49    10.00   110.00     0  07:00       10.00
  NL_226               JUNCTION     8.52    10.00   110.00     0  07:00       10.00
  NL_228               JUNCTION     8.56    10.00   110.00     0  07:00       10.00
  NL_230               JUNCTION     8.01    10.00   110.00     0  07:22        9.99
  NL_232               JUNCTION     8.04    10.00   110.00     0  07:22       10.00
  NL_234               JUNCTION     8.07    10.00   110.00     0  07:22       10.00
  NL_236               JUNCTION     8.12    10.00   110.00     0  07:22       10.00
  NL_238               JUNCTION     8.16    10.00   110.00     0  07:22       10.00
  NL_240               JUNCTION     8.20    10.00   110.00     0  07:22       10.00
  NL_242               JUNCTION     8.26    10.00   110.00     0  07:00       10.00
  NL_244               JUNCTION     8.27    10.00   110.00     0  06:50       10.00
  NL_246               JUNCTION     8.29    10.00   110.00     0  06:49       10.00
  NL_248               JUNCTION     8.31    10.00   110.00     0  06:49       10.00
  NL_250               JUNCTION     8.34    10.00   110.00     0  06:33       10.00
  NL_252               JUNCTION     8.34    10.00   110.00     0  06:33       10.00
  NL_254               JUNCTION     8.34    10.00   110.00     0  06:33       10.00
  NL_256               JUNCTION     8.24    10.00   110.00     0  07:00       10.00
  NL_258               JUNCTION     8.23    10.00   110.00     0  07:00       10.00
  NL_260               JUNCTION     8.23    10.00   110.00     0  07:00       10.00
  NL_262               JUNCTION     8.23    10.00   110.00     0  06:47       10.00
  NL_264               JUNCTION     8.23    10.00   110.00     0  06:47       10.00
  NL_266               JUNCTION     8.23    10.00   110.00     0  06:47       10.00
  NL_268               JUNCTION     8.24    10.00   110.00     0  06:46       10.00
  NL_270               JUNCTION     1.31     3.01   103.01     0  20:30        2.73
  NL_272               JUNCTION     2.38     5.00   105.00     0  20:30        4.74
  NL_274               JUNCTION     3.63     7.64   107.64     1  07:10        7.37
  NL_276               JUNCTION     3.61     7.48   107.48     1  07:18        7.33
  NL_278               JUNCTION     3.71     8.89   108.89     1  07:49        7.83
  NL_280               JUNCTION     3.86    10.00   110.00     1  07:10        8.62
  NL_282               JUNCTION     4.00    10.00   110.00     1  07:10        9.31
  NL_284               JUNCTION     4.13    10.00   110.00     0  20:28       10.00
  NL_286               JUNCTION     1.19     2.23   102.23     1  07:12        2.20
  NL_288               JUNCTION     1.30     2.58   102.58     1  07:09        2.39
  NL_290               JUNCTION     1.42     3.02   103.02     1  07:08        2.70
  NL_292               JUNCTION     1.44     2.86   102.86     1  07:10        2.57
  NL_294               JUNCTION     1.45     2.91   102.91     1  07:10        2.37
  NL_296               JUNCTION     1.47     2.96   102.96     1  07:10        2.29
  NL_298               JUNCTION     1.49     3.48   103.48     1  07:10        2.58
  NL_300               JUNCTION     1.50     3.95   103.95     1  07:10        2.78
  NL_302               JUNCTION     1.48     3.29   103.29     0  17:37        2.82
  NL_304               JUNCTION     1.55     3.27   103.27     0  17:37        2.94
  NL_306               JUNCTION     1.62     3.23   103.23     1  07:39        3.18
  NL_308               JUNCTION     1.68     3.34   103.34     1  07:39        3.32
  NL_310               JUNCTION     1.75     3.69   103.69     1  07:10        3.43
  NL_312               JUNCTION     1.83     4.14   104.14     1  07:10        3.52
  NL_314               JUNCTION     1.90     4.42   104.42     1  07:10        3.67
  NL_316               JUNCTION     1.97     4.50   104.50     1  07:10        3.84
  NL_318               JUNCTION     2.04     4.46   104.46     1  07:10        4.02
  NL_320               JUNCTION     2.12     4.31   104.31     1  07:10        4.27
  NL_322               JUNCTION     2.14     4.54   104.54     1  07:10        4.32
  NL_324               JUNCTION     2.16     4.72   104.72     1  07:10        4.38
  NL_326               JUNCTION     4.00     7.79   107.79     1  07:19        7.64
  NL_328               JUNCTION     4.38     8.17   108.17     1  07:19        8.12
  NL_330               JUNCTION     4.72     8.53   108.53     1  07:19        8.52
  NL_332               JUNCTION     5.08     8.90   108.90     1  07:19        8.90
  NL_334               JUNCTION     5.52     9.35   109.35     1  07:20        9.35
  NL_336               JUNCTION     6.08     9.85   109.85     1  07:20        9.85
  NL_338               JUNCTION     6.17     9.86   109.86     1  07:21        9.86
  NL_340               JUNCTION     6.27     9.87   109.87     1  07:21        9.86
  NL_342               JUNCTION     6.37     9.91   109.91     1  07:21        9.88
  NL_344               JUNCTION     6.50     9.96   109.96     1  07:21        9.92
  NL_346               JUNCTION     6.62    10.00   110.00     1  07:21        9.95
  NL_348               JUNCTION     6.73    10.00   110.00     1  07:21        9.97
  NL_350               JUNCTION     6.84    10.00   110.00     1  07:21        9.98
  NL_352               JUNCTION     6.93    10.00   110.00     1  07:21        9.99
  NL_354               JUNCTION     7.04    10.00   110.00     1  07:18        9.99
  NL_356               JUNCTION     6.00     9.86   109.86     1  07:20        9.86
  NL_358               JUNCTION     6.00     9.88   109.88     1  07:20        9.88
  NL_360               JUNCTION     6.00     9.90   109.90     1  07:19        9.90
  NL_362               JUNCTION     6.00     9.91   109.91     1  07:19        9.91
  NL_364               JUNCTION     6.02     9.87   109.87     1  07:20        9.86
  NL_366               JUNCTION     6.03     9.89   109.89     1  07:21        9.88
  NL_368               JUNCTION     6.05     9.92   109.92     1  07:21        9.90
  NL_370               JUNCTION     6.07     9.96   109.96     1  07:21        9.93
  NL_372               JUNCTION     6.11    10.00   110.00     1  07:17        9.99
  NL_374               JUNCTION     6.12    10.00   110.00     1  07:17       10.00
  NL_376               JUNCTION     6.13    10.00   110.00     1  07:14       10.00
  NL_378               JUNCTION     6.14    10.00   110.00     1  07:14       10.00
  NL_380               JUNCTION     7.16    10.00   110.00     0  07:36       10.00
  NL_382               JUNCTION     7.18    10.00   110.00     0  07:36       10.00
  NL_384               JUNCTION     7.20    10.00   110.00     0  07:36       10.00
  NL_386               JUNCTION     7.22    10.00   110.00     0  07:36       10.00
  NL_388               JUNCTION     7.24    10.00   110.00     0  07:33       10.00
  NL_390               JUNCTION     7.28    10.00   110.00     0  07:22       10.00
  NL_392               JUNCTION     7.29    10.00   110.00     0  07:22       10.00
  NL_394               JUNCTION     7.29    10.00   110.00     0  07:22       10.00
  NL_396               JUNCTION     7.31    10.00   110.00     0  07:22       10.00
  NL_398               JUNCTION     7.32    10.00   110.00     0  07:23       10.00
  NL_400               JUNCTION     7.33    10.00   110.00     0  07:22       10.00
  NL_402               JUNCTION     7.35    10.00   110.00     0  07:11       10.00
  NL_404               JUNCTION     7.35    10.00   110.00     0  07:11       10.00
  NL_406               JUNCTION     7.35    10.00   110.00     0  07:11       10.00
  NL_408               JUNCTION     7.36    10.00   110.00     0  07:11       10.00
  NL_410               JUNCTION     1.35     1.84   101.84     1  07:43        1.84
  NL_412               JUNCTION     2.80     3.98   103.98     0  07:58        3.97
  NL_414               JUNCTION     4.25     6.12   106.12     0  07:45        6.12
  NL_416               JUNCTION     4.92     7.14   107.14     1  07:49        7.14
  NL_418               JUNCTION     4.97     7.29   107.29     1  07:59        7.28
  NL_420               JUNCTION     5.04     7.50   107.50     1  07:35        7.49
  NL_422               JUNCTION     5.14     7.78   107.78     1  07:35        7.77
  NL_424               JUNCTION     5.22     7.99   107.99     1  07:44        7.99
  NL_426               JUNCTION     5.29     8.20   108.20     0  07:58        8.20
  NL_428               JUNCTION     5.38     8.46   108.46     0  07:42        8.45
  NL_430               JUNCTION     5.48     8.74   108.74     1  07:48        8.74
  NL_432               JUNCTION     5.57     9.00   109.00     0  07:51        9.00
  NL_434               JUNCTION     5.22     7.41   107.41     0  07:55        7.40
  NL_436               JUNCTION     5.83     8.03   108.03     0  07:54        8.03
  NL_438               JUNCTION     6.43     8.64   108.64     1  07:21        8.64
  NL_440               JUNCTION     6.87     9.10   109.10     1  07:14        9.08
  NL_442               JUNCTION     7.07     9.30   109.30     1  07:14        9.28
  NL_444               JUNCTION     7.31     9.53   109.53     1  07:14        9.51
  NL_446               JUNCTION     7.57     9.78   109.78     0  07:24        9.76
  NL_448               JUNCTION     7.70     9.94   109.94     0  07:24        9.89
  NL_450               JUNCTION     7.71     9.97   109.97     0  07:24        9.92
  NL_452               JUNCTION     7.72     9.98   109.98     0  07:24        9.95
  NL_454               JUNCTION     7.73    10.00   110.00     0  07:24        9.98
  NL_456               JUNCTION     6.89     9.10   109.10     1  07:48        9.10
  NL_458               JUNCTION     7.16     9.40   109.40     0  07:22        9.34
  NL_460               JUNCTION     7.40     9.69   109.69     0  07:22        9.55
  NL_462               JUNCTION     7.63     9.93   109.93     0  07:22        9.76
  NL_464               JUNCTION     7.76     9.94   109.94     0  07:24        9.90
  NL_466               JUNCTION     7.90     9.97   109.97     0  07:24        9.94
  NL_468               JUNCTION     8.06     9.99   109.99     1  07:02        9.98
  NL_470               JUNCTION     8.13    10.00   110.00     0  07:22       10.00
  NL_472               JUNCTION     8.14    10.00   110.00     0  07:22       10.00
  NL_474               JUNCTION     8.15    10.00   110.00     0  07:21       10.00
  NL_476               JUNCTION     8.17    10.00   110.00     0  07:22       10.00
  NL_478               JUNCTION     8.24    10.00   110.00     0  07:22       10.00
  NL_480               JUNCTION     8.33    10.00   110.00     0  07:02       10.00
  NL_482               JUNCTION     8.38    10.00   110.00     0  07:00       10.00
  NL_484               JUNCTION     8.39    10.00   110.00     0  07:00       10.00
  NL_486               JUNCTION     8.41    10.00   110.00     0  07:00       10.00
  NL_488               JUNCTION     8.39    10.00   110.00     0  07:00       10.00
  NL_490               JUNCTION     8.41    10.00   110.00     0  07:00       10.00
  NL_492               JUNCTION     8.43    10.00   110.00     0  07:00       10.00
  NL_494               JUNCTION     8.46    10.00   110.00     0  07:00       10.00
  NL_496               JUNCTION     8.48    10.00   110.00     0  07:00       10.00
  NL_498               JUNCTION     8.51    10.00   110.00     0  07:00       10.00
  NL_500               JUNCTION     8.54    10.00   110.00     0  07:00       10.00
  NL_502               JUNCTION     8.58    10.00   110.00     0  06:49       10.00
  NL_504               JUNCTION     7.79    10.00   110.00     0  07:22        9.88
  NL_506               JUNCTION     7.92    10.00   110.00     0  07:22        9.94
  NL_508               JUNCTION     7.99    10.00   110.00     0  07:22        9.99
  NL_510               JUNCTION     8.02    10.00   110.00     0  07:22       10.00
  NL_512               JUNCTION     8.06    10.00   110.00     0  07:22       10.00
  NL_514               JUNCTION     8.10    10.00   110.00     0  07:22       10.00
  NL_516               JUNCTION     8.14    10.00   110.00     0  07:22       10.00
  NL_518               JUNCTION     8.18    10.00   110.00     0  07:22       10.00
  NL_520               JUNCTION     8.23    10.00   110.00     0  07:22       10.00
  NL_522               JUNCTION     7.73    10.00   110.00     0  07:22        9.86
  NL_524               JUNCTION     7.72    10.00   110.00     0  07:22        9.89
  NL_526               JUNCTION     7.72    10.00   110.00     0  07:22        9.93
  NL_528               JUNCTION     7.73    10.00   110.00     0  07:22        9.97
  NL_530               JUNCTION     7.75    10.00   110.00     0  07:22        9.99
  NL_532               JUNCTION     7.76    10.00   110.00     0  07:22       10.00
  NL_534               JUNCTION     7.78    10.00   110.00     0  07:22       10.00
  NL_536               JUNCTION     7.78    10.00   110.00     0  07:21       10.00
  NL_538               JUNCTION     7.78    10.00   110.00     0  07:21       10.00
  NL_540               JUNCTION     7.78    10.00   110.00     0  07:21       10.00
  NL_542               JUNCTION     7.77    10.00   110.00     0  07:21       10.00
  NL_544               JUNCTION     7.78    10.00   110.00     0  07:21       10.00
  NL_546               JUNCTION     7.78    10.00   110.00     0  07:21       10.00
  NL_548               JUNCTION     7.79    10.00   110.00     0  07:21       10.00
  NL_550               JUNCTION     7.80    10.00   110.00     0  07:21       10.00
  NL_552               JUNCTION     7.77    10.00   110.00     0  07:20       10.00
  NL_554               JUNCTION     7.75    10.00   110.00     0  07:20       10.00
  NL_556               JUNCTION     7.73    10.00   110.00     0  07:20       10.00
  NL_558               JUNCTION     7.71    10.00   110.00     0  07:20       10.00
  NL_560               JUNCTION     7.71    10.00   110.00     0  07:20       10.00
  NL_562               JUNCTION     7.70    10.00   110.00     0  07:20       10.00
  NL_564               JUNCTION     7.70    10.00   110.00     0  07:20       10.00
  NL_566               JUNCTION     7.71    10.00   110.00     0  07:20       10.00
  NL_568               JUNCTION     7.69    10.00   110.00     0  07:20       10.00
  NL_570               JUNCTION     7.68    10.00   110.00     0  07:20       10.00
  NL_572               JUNCTION     7.67    10.00   110.00     0  07:20       10.00
  NL_574               JUNCTION     7.67    10.00   110.00     0  07:20       10.00
  NL_576               JUNCTION     7.67    10.00   110.00     0  07:20       10.00
  NL_578               JUNCTION     7.67    10.00   110.00     0  07:20       10.00
  NL_580               JUNCTION     7.67    10.00   110.00     0  07:20       10.00
  NL_582               JUNCTION     7.68    10.00   110.00     0  07:20       10.00
  NL_584               JUNCTION     8.23    10.00   110.00     0  07:00       10.00
  NL_586               JUNCTION     8.23    10.00   110.00     0  07:00       10.00
  NL_588               JUNCTION     8.23    10.00   110.00     0  07:00       10.00
  NL_590               JUNCTION     8.24    10.00   110.00     0  07:00       10.00
  NL_592               JUNCTION     8.25    10.00   110.00     0  07:00       10.00
  NL_594               JUNCTION     8.26    10.00   110.00     0  07:00       10.00
  NL_596               JUNCTION     8.28    10.00   110.00     0  06:50       10.00
  NL_598               JUNCTION     8.30    10.00   110.00     0  06:49       10.00
  NL_600               JUNCTION     8.33    10.00   110.00     0  06:49       10.00
  NL_602               JUNCTION     8.34    10.00   110.00     0  06:33       10.00
  NL_604               JUNCTION     8.34    10.00   110.00     0  06:33       10.00
  NL_606               JUNCTION     8.34    10.00   110.00     0  06:33       10.00
  NL_608               JUNCTION     8.34    10.00   110.00     0  06:33       10.00
  NL_610               JUNCTION     8.23    10.00   110.00     0  06:47       10.00
  NL_612               JUNCTION     8.23    10.00   110.00     0  06:47       10.00
  NL_614               JUNCTION     8.24    10.00   110.00     0  06:46       10.00
  NL_616               JUNCTION     8.24    10.00   110.00     0  06:46       10.00
  NL_618               JUNCTION   231.29   532.57   632.57     0  16:35      404.80
  NL_620               JUNCTION     1.86     4.01   104.01     0  20:30        3.75
  NL_622               JUNCTION     3.00     6.24   106.24     1  07:21        6.00
  NL_624               JUNCTION     3.60     7.42   107.42     1  07:18        7.29
  NL_626               JUNCTION     3.63     7.54   107.54     1  07:18        7.35
  NL_628               JUNCTION     3.65     7.88   107.88     1  07:10        7.39
  NL_630               JUNCTION     3.64     8.08   108.08     1  07:21        7.44
  NL_632               JUNCTION     3.78     9.50   109.50     1  07:49        8.18
  NL_634               JUNCTION     3.93    10.00   110.00     1  07:10        9.02
  NL_636               JUNCTION     4.06    10.00   110.00     1  07:29        9.58
  NL_638               JUNCTION     4.18    12.63   112.63     1  07:24       11.22
  NL_640               JUNCTION     1.24     2.37   102.37     1  07:09        2.25
  NL_644               JUNCTION     1.45     3.18   103.18     0  17:37        2.77
  NL_646               JUNCTION     1.42     3.04   103.04     1  07:08        2.72
  NL_648               JUNCTION     1.43     2.96   102.96     1  07:08        2.66
  NL_650               JUNCTION     1.44     2.91   102.91     1  07:10        2.48
  NL_654               JUNCTION     1.48     3.20   103.20     1  07:10        2.44
  NL_656               JUNCTION     1.50     3.72   103.72     1  07:10        2.69
  NL_658               JUNCTION     1.51     4.09   104.09     1  07:10        2.84
  NL_660               JUNCTION     1.51     3.32   103.32     0  17:37        2.87
  NL_662               JUNCTION     1.58     3.18   103.18     0  17:37        3.06
  NL_664               JUNCTION     1.65     3.30   103.30     1  07:39        3.26
  NL_666               JUNCTION     1.71     3.46   103.46     1  07:10        3.38
  NL_668               JUNCTION     1.79     3.93   103.93     1  07:10        3.47
  NL_670               JUNCTION     1.87     4.32   104.32     1  07:10        3.56
  NL_672               JUNCTION     1.94     4.48   104.48     1  07:10        3.76
  NL_674               JUNCTION     2.00     4.49   104.49     1  07:10        3.93
  NL_676               JUNCTION     2.07     4.42   104.42     1  07:10        4.09
  NL_678               JUNCTION     2.11     4.24   104.24     1  07:15        4.24
  NL_680               JUNCTION     2.13     4.44   104.44     1  07:10        4.30
  NL_682               JUNCTION     2.15     4.66   104.66     1  07:10        4.35
  NL_684               JUNCTION     2.17     4.79   104.79     1  07:10        4.41
  NL_686               JUNCTION     3.80     7.59   107.59     1  07:19        7.45
  NL_688               JUNCTION     4.23     8.02   108.02     1  07:19        7.93
  NL_690               JUNCTION     4.58     8.38   108.38     1  07:19        8.36
  NL_692               JUNCTION     4.93     8.75   108.75     1  07:19        8.75
  NL_694               JUNCTION     5.33     9.15   109.15     1  07:20        9.15
  NL_696               JUNCTION     5.79     9.63   109.63     1  07:20        9.62
  NL_698               JUNCTION     6.02     9.88   109.88     1  07:21        9.87
  NL_700               JUNCTION     6.06     9.93   109.93     1  07:21        9.91
  NL_702               JUNCTION     6.09     9.98   109.98     1  07:21        9.95
  NL_704               JUNCTION     6.11    10.00   110.00     1  07:17        9.99
  NL_706               JUNCTION     6.12    10.00   110.00     1  07:17        9.99
  NL_708               JUNCTION     6.12    10.00   110.00     1  07:17       10.00
  NL_710               JUNCTION     6.13    10.00   110.00     1  07:14       10.00
  NL_712               JUNCTION     6.14    10.00   110.00     0  20:34       10.00
  NL_714               JUNCTION     6.04     9.85   109.85     1  07:20        9.84
  NL_716               JUNCTION     6.13     9.86   109.86     1  07:21        9.85
  NL_718               JUNCTION     6.22     9.86   109.86     1  07:20        9.86
  NL_720               JUNCTION     6.32     9.89   109.89     1  07:21        9.87
  NL_722               JUNCTION     6.45     9.94   109.94     1  07:21        9.90
  NL_724               JUNCTION     6.56     9.98   109.98     1  07:21        9.93
  NL_726               JUNCTION     6.69    10.00   110.00     1  07:21        9.96
  NL_728               JUNCTION     6.79    10.00   110.00     1  07:21        9.98
  NL_730               JUNCTION     6.88    10.00   110.00     1  07:21        9.98
  NL_732               JUNCTION     6.99    10.00   110.00     1  07:21       10.00
  NL_734               JUNCTION     7.09    10.00   110.00     1  07:18       10.00
  NL_736               JUNCTION     7.15    10.00   110.00     0  07:36       10.00
  NL_738               JUNCTION     7.17    10.00   110.00     0  07:36       10.00
  NL_740               JUNCTION     7.19    10.00   110.00     0  07:36       10.00
  NL_742               JUNCTION     7.21    10.00   110.00     0  07:34       10.00
  NL_744               JUNCTION     7.23    10.00   110.00     0  07:35       10.00
  NL_746               JUNCTION     7.26    10.00   110.00     0  07:28       10.00
  NL_748               JUNCTION     7.28    10.00   110.00     0  07:22       10.00
  NL_750               JUNCTION     7.29    10.00   110.00     0  07:22       10.00
  NL_752               JUNCTION     7.30    10.00   110.00     0  07:23       10.00
  NL_754               JUNCTION     7.31    10.00   110.00     0  07:22       10.00
  NL_756               JUNCTION     7.34    10.00   110.00     0  07:20       10.00
  NL_758               JUNCTION     7.35    10.00   110.00     0  07:11       10.00
  NL_760               JUNCTION     7.35    10.00   110.00     0  07:11       10.00
  NL_762               JUNCTION     7.35    10.00   110.00     0  07:11       10.00
  NL_764               JUNCTION     7.35    10.00   110.00     0  07:11       10.00
  NL_766               JUNCTION     7.36    10.00   110.00     0  07:11       10.00
  NL_768               JUNCTION     7.36    10.00   110.00     0  07:11       10.00
  NL_770               JUNCTION     7.99    10.00   110.00     0  07:22        9.98
  NL_772               JUNCTION     8.02    10.00   110.00     0  07:22        9.99
  NL_774               JUNCTION     8.05    10.00   110.00     0  07:22       10.00
  NL_776               JUNCTION     8.08    10.00   110.00     0  07:22       10.00
  NL_778               JUNCTION     8.12    10.00   110.00     0  07:22       10.00
  NL_780               JUNCTION     1.36     2.83   102.83     0  17:37        2.56
  NL_782               JUNCTION   224.06   487.12   587.12     0  08:04      411.19
  NL_784               JUNCTION     9.15    14.45   114.45     1  07:37       14.10
  NL_96                JUNCTION     7.70    10.00   110.00     0  07:20       10.00
  NL_98                JUNCTION     7.70    10.00   110.00     0  07:20       10.00
  94                   OUTFALL      0.48     0.62   100.62     1  07:43        0.62
  9006                 STORAGE      1.12     2.23   102.23     1  07:12        2.18
  9008                 STORAGE      1.07     2.66   102.66     0  20:30        2.47
  
  
  *******************
  Node Inflow Summary
  *******************
  
  -------------------------------------------------------------------------------------------------
                                  Maximum  Maximum                  Lateral       Total        Flow
                                  Lateral    Total  Time of Max      Inflow      Inflow     Balance
                                   Inflow   Inflow   Occurrence      Volume      Volume       Error
  Node                 Type           CFS      CFS  days hr:min    10^6 gal    10^6 gal     Percent
  -------------------------------------------------------------------------------------------------
  20                   JUNCTION      0.00     2.09     1  07:41           0        1.51       0.137
  22                   JUNCTION      0.00     1.55     1  06:04           0        1.17       0.236
  24                   JUNCTION      0.19     1.42     0  06:19      0.0936        0.59       0.529
  26                   JUNCTION      0.11     1.18     0  06:10      0.0559       0.415       0.987
  28                   JUNCTION      0.19     0.19     0  07:00      0.0951      0.0951       2.008
  30                   JUNCTION      0.59     0.59     0  07:00       0.295       0.295       0.558
  32                   JUNCTION      0.24     1.16     0  06:06       0.118       0.322       1.210
  34                   JUNCTION      2.15     2.15     0  07:00        1.07        1.07       0.131
  36                   JUNCTION      0.24     0.24     0  07:00       0.118       0.118       0.920
  38                   JUNCTION      0.77     0.77     0  07:00       0.385       0.385       0.259
  40                   JUNCTION      0.08     1.71     0  06:27      0.0401       0.651       0.413
  42                   JUNCTION      0.11     1.53     0  06:26      0.0524       0.429       0.717
  44                   JUNCTION      0.89     0.89     0  07:00       0.443       0.443       0.242
  46                   JUNCTION      0.49     1.72     0  07:06       0.242       0.298       0.821
  48                   JUNCTION      0.24     1.89     0  07:07       0.109       0.162       1.676
  50                   JUNCTION      0.34     0.34     0  08:00       0.156       0.157       0.738
  52                   JUNCTION      1.23     1.23     0  08:00       0.563       0.564       0.135
  54                   JUNCTION      0.30     0.30     0  07:00       0.151       0.151       0.391
  56                   JUNCTION      0.72     1.30     0  06:17       0.359       0.431       0.830
  58                   JUNCTION      0.30     0.66     0  06:18       0.147       0.167       1.223
  60                   JUNCTION      0.81     0.84     0  07:00       0.404       0.424       0.560
  62                   JUNCTION      0.45     0.45     0  07:00       0.227       0.227       0.484
  64                   JUNCTION      0.23     0.23     0  07:00       0.113       0.113      -2.338
  66                   JUNCTION      0.00     2.36     1  07:37           0        1.27       0.910
  68                   JUNCTION      0.31     1.58     0  07:29       0.153       0.831       0.418
  70                   JUNCTION      0.60     1.25     0  07:10       0.298       0.476       0.276
  72                   JUNCTION      0.13     0.13     0  07:00      0.0642      0.0642       1.789
  74                   JUNCTION      0.20     0.74     0  07:09         0.1       0.223       0.785
  76                   JUNCTION      0.07     0.65     0  07:10      0.0353       0.156       1.355
  78                   JUNCTION      0.26     0.26     0  07:00       0.131       0.131       0.628
  80                   JUNCTION      0.41     0.41     0  07:00       0.203       0.203       0.348
  82                   JUNCTION      0.28     0.28     0  07:00       0.141       0.141       0.617
  84                   JUNCTION      0.13     1.09     1  07:10       0.063       0.417       1.636
  86                   JUNCTION      0.07     0.35     0  07:50      0.0367       0.039      -0.754
  88                   JUNCTION      0.34     0.94     1  07:05       0.169       0.346       0.406
  90                   JUNCTION      0.36     0.36     0  07:00        0.18        0.18       0.081
  92                   JUNCTION      0.18     0.60     0  07:08        0.09       0.221       0.647
  NL_100               JUNCTION      0.00     0.82     0  07:08           0      0.0317       6.088
  NL_102               JUNCTION      0.00     0.90     0  07:13           0      0.0229       6.396
  NL_104               JUNCTION      0.00     0.91     0  07:09           0      0.0234       7.005
  NL_106               JUNCTION      0.00     0.89     0  07:13           0      0.0234       6.528
  NL_108               JUNCTION      0.00     0.79     0  07:14           0      0.0231       7.517
  NL_110               JUNCTION      0.00     1.33     0  07:13           0      0.0228       7.719
  NL_112               JUNCTION      0.00     1.53     0  07:12           0      0.0244       8.143
  NL_114               JUNCTION      0.00     1.66     0  07:11           0      0.0275       7.308
  NL_116               JUNCTION      0.00     1.66     0  07:11           0      0.0307       7.412
  NL_118               JUNCTION      0.00     1.71     0  07:06           0       0.053       3.598
  NL_120               JUNCTION      0.00     1.72     0  07:06           0      0.0562       3.472
  NL_122               JUNCTION      0.00     0.46     0  07:03           0      0.0402       4.628
  NL_124               JUNCTION      0.00     0.51     0  07:03           0      0.0388       4.789
  NL_126               JUNCTION      0.00     0.66     0  07:02           0      0.0385       5.037
  NL_128               JUNCTION      0.00     0.67     0  07:01           0      0.0376       5.735
  NL_130               JUNCTION      0.00     0.68     0  07:01           0      0.0365       4.984
  NL_132               JUNCTION      0.00     0.68     0  07:01           0      0.0358       4.395
  NL_134               JUNCTION      0.00     0.69     0  06:52           0      0.0366       4.947
  NL_136               JUNCTION      0.00     1.21     0  07:02           0       0.218       0.838
  NL_138               JUNCTION      0.00     1.21     0  07:02           0       0.219       1.025
  NL_140               JUNCTION      0.00     1.22     0  07:02           0        0.22       1.119
  NL_142               JUNCTION      0.00     1.27     0  06:34           0       0.223       1.016
  NL_144               JUNCTION      0.00     1.38     0  06:31           0       0.226       0.880
  NL_146               JUNCTION      0.00     1.62     0  06:29           0        0.23       0.896
  NL_148               JUNCTION      0.00     0.83     0  07:00           0       0.207       1.023
  NL_150               JUNCTION      0.00     0.80     0  07:00           0       0.203       0.895
  NL_152               JUNCTION      0.00     0.75     0  07:01           0         0.2       0.912
  NL_154               JUNCTION      0.00     0.75     0  07:01           0       0.196       1.104
  NL_156               JUNCTION      0.00     0.88     1  07:00           0       0.382       0.452
  NL_158               JUNCTION      0.00     0.92     1  07:00           0       0.379       0.515
  NL_160               JUNCTION      0.00     0.87     1  07:01           0       0.375       0.461
  NL_162               JUNCTION      0.00     0.79     1  07:01           0       0.372       0.382
  NL_164               JUNCTION      0.00     0.78     1  07:51           0       0.369       0.393
  NL_166               JUNCTION      0.00     0.78     1  07:36           0       0.366       0.502
  NL_168               JUNCTION      0.00     0.78     1  07:29           0       0.363       0.388
  NL_170               JUNCTION      0.00     0.78     1  07:36           0       0.362       0.296
  NL_172               JUNCTION      0.00     0.90     1  01:36           0       0.611       0.303
  NL_174               JUNCTION      0.00     0.89     1  01:37           0        0.61       0.326
  NL_176               JUNCTION      0.00     0.89     1  01:37           0       0.609       0.355
  NL_178               JUNCTION      0.00     1.53     0  06:26           0       0.419       0.444
  NL_180               JUNCTION      0.00     2.08     1  07:43           0         1.5       0.122
  NL_182               JUNCTION      0.00     2.08     1  07:44           0         1.5       0.125
  NL_184               JUNCTION      0.00     1.55     1  01:05           0        1.16       0.123
  NL_186               JUNCTION      0.00     1.54     1  01:05           0        1.16       0.120
  NL_188               JUNCTION      0.00     1.42     0  06:18           0       0.569       0.315
  NL_190               JUNCTION      0.00     1.42     0  06:18           0       0.573       0.355
  NL_192               JUNCTION      0.00     1.42     0  06:19           0       0.577       0.377
  NL_194               JUNCTION      0.00     0.24     1  07:13           0       0.115       1.728
  NL_196               JUNCTION      0.00     0.25     0  07:03           0       0.114       1.643
  NL_198               JUNCTION      0.00     0.26     0  07:03           0       0.115       1.501
  NL_200               JUNCTION      0.00     1.15     0  06:15           0       0.392       0.682
  NL_202               JUNCTION      0.00     1.16     0  06:12           0       0.396       0.731
  NL_204               JUNCTION      0.00     0.24     0  05:27           0      0.0864       3.909
  NL_206               JUNCTION      0.00     0.19     0  07:05           0      0.0834       4.405
  NL_208               JUNCTION      0.00     1.07     0  06:08           0       0.287       0.806
  NL_210               JUNCTION      0.00     1.10     0  06:07           0       0.293       0.943
  NL_212               JUNCTION      0.00     0.41     0  06:28           0      0.0788       4.182
  NL_214               JUNCTION      0.00     0.41     0  06:21           0      0.0843       3.916
  NL_216               JUNCTION      0.00     0.83     0  06:04           0       0.135       1.680
  NL_218               JUNCTION      0.00     0.92     0  06:04           0       0.139       1.673
  NL_220               JUNCTION      0.00     1.00     0  06:04           0       0.143       1.615
  NL_222               JUNCTION      0.00     1.11     0  06:04           0       0.148       1.374
  NL_224               JUNCTION      0.00     1.20     0  06:03           0       0.153       1.656
  NL_226               JUNCTION      0.00     1.28     0  06:03           0       0.158       1.794
  NL_228               JUNCTION      0.00     1.38     0  06:03           0       0.164       1.594
  NL_230               JUNCTION      0.00     0.94     0  06:25           0       0.191       1.254
  NL_232               JUNCTION      0.00     0.94     0  06:25           0       0.191       1.104
  NL_234               JUNCTION      0.00     0.94     0  06:24           0       0.194       1.101
  NL_236               JUNCTION      0.00     0.96     0  06:24           0       0.198       1.075
  NL_238               JUNCTION      0.00     0.98     0  06:24           0       0.203       1.143
  NL_240               JUNCTION      0.00     1.00     0  06:24           0       0.208       1.179
  NL_242               JUNCTION      0.00     0.82     0  06:17           0      0.0605       4.250
  NL_244               JUNCTION      0.00     0.82     0  06:18           0      0.0636       4.314
  NL_246               JUNCTION      0.00     0.83     0  06:18           0      0.0683       3.940
  NL_248               JUNCTION      0.00     0.83     0  06:17           0      0.0738       3.900
  NL_250               JUNCTION      0.00     0.29     0  06:17           0      0.0235       8.201
  NL_252               JUNCTION      0.00     0.30     0  06:10           0      0.0246       8.720
  NL_254               JUNCTION      0.00     0.31     0  06:01           0      0.0282       6.949
  NL_256               JUNCTION      0.00     0.57     0  06:11           0      0.0541       4.529
  NL_258               JUNCTION      0.00     0.54     0  06:12           0       0.049       4.524
  NL_260               JUNCTION      0.00     0.53     0  06:15           0      0.0429       5.190
  NL_262               JUNCTION      0.00     0.51     0  06:16           0      0.0369       4.241
  NL_264               JUNCTION      0.00     0.49     0  06:16           0      0.0334       2.653
  NL_266               JUNCTION      0.00     0.49     0  06:16           0       0.033      -0.614
  NL_268               JUNCTION      0.00     4.28     1  07:37           0        1.37      -1.581
  NL_270               JUNCTION      0.00     2.42     1  07:19           0        1.18       0.444
  NL_272               JUNCTION      0.00     2.36     1  07:37           0         1.2       0.704
  NL_274               JUNCTION      0.00     0.52     1  07:11           0       0.129      -0.306
  NL_276               JUNCTION      0.00     0.75     1  07:11           0       0.163       1.827
  NL_278               JUNCTION      0.00     1.32     0  08:06           0       0.355       0.872
  NL_280               JUNCTION      0.00     1.37     0  13:25           0       0.347      -0.494
  NL_282               JUNCTION      0.00     1.66     0  13:25           0       0.324      -2.215
  NL_284               JUNCTION      0.00     3.03     1  07:24           0        0.33       2.343
  NL_286               JUNCTION      0.00     1.33     1  07:10           0       0.349      -2.291
  NL_288               JUNCTION      0.00     1.14     1  07:25           0       0.358       1.513
  NL_290               JUNCTION      0.00     0.62     0  07:47           0       0.123       3.003
  NL_292               JUNCTION      0.00     0.73     1  07:03           0       0.136       1.668
  NL_294               JUNCTION      0.00     0.80     1  07:03           0       0.139       1.635
  NL_296               JUNCTION      0.00     0.79     1  07:03           0       0.136       1.552
  NL_298               JUNCTION      0.00     0.67     1  07:03           0       0.114       0.509
  NL_300               JUNCTION      0.00     0.42     0  17:39           0      0.0766       0.274
  NL_302               JUNCTION      0.00     0.87     1  07:10           0       0.301       1.474
  NL_304               JUNCTION      0.00     0.91     1  07:10           0       0.307       1.316
  NL_306               JUNCTION      0.00     0.94     1  07:03           0       0.312       1.222
  NL_308               JUNCTION      0.00     0.97     1  07:03           0       0.318       1.137
  NL_310               JUNCTION      0.00     0.93     1  07:03           0       0.325       0.919
  NL_312               JUNCTION      0.00     0.84     1  07:03           0        0.33       0.759
  NL_314               JUNCTION      0.00     0.79     1  07:12           0       0.335       0.512
  NL_316               JUNCTION      0.00     0.85     1  07:12           0       0.338       0.388
  NL_318               JUNCTION      0.00     0.90     1  07:12           0       0.341       0.363
  NL_320               JUNCTION      0.00     0.62     1  07:05           0        0.18       0.736
  NL_322               JUNCTION      0.00     0.58     1  07:05           0        0.18       0.702
  NL_324               JUNCTION      0.00     0.48     1  07:05           0        0.18       0.526
  NL_326               JUNCTION      0.00     1.56     0  07:27           0       0.806       0.467
  NL_328               JUNCTION      0.00     1.56     0  07:29           0        0.81       0.252
  NL_330               JUNCTION      0.00     1.57     0  07:29           0       0.812       0.095
  NL_332               JUNCTION      0.00     1.57     0  07:29           0       0.813       0.069
  NL_334               JUNCTION      0.00     1.57     0  07:29           0       0.815       0.148
  NL_336               JUNCTION      0.00     1.13     0  07:07           0       0.418       0.335
  NL_338               JUNCTION      0.00     1.14     0  07:07           0       0.419       0.354
  NL_340               JUNCTION      0.00     1.15     0  07:09           0        0.42       0.394
  NL_342               JUNCTION      0.00     1.16     0  07:09           0       0.423       0.474
  NL_344               JUNCTION      0.00     1.17     0  07:10           0       0.426       0.409
  NL_346               JUNCTION      0.00     1.18     0  07:10           0        0.43       0.404
  NL_348               JUNCTION      0.00     1.19     0  07:10           0       0.433       0.336
  NL_350               JUNCTION      0.00     1.21     0  07:10           0       0.435       0.301
  NL_352               JUNCTION      0.00     1.22     0  07:10           0       0.438       0.341
  NL_354               JUNCTION      0.00     1.23     0  07:10           0       0.441       0.334
  NL_356               JUNCTION      0.00     0.38     0  07:07           0      0.0608       4.101
  NL_358               JUNCTION      0.00     0.31     0  07:07           0      0.0604       3.948
  NL_360               JUNCTION      0.00     0.18     0  07:08           0      0.0615       4.272
  NL_362               JUNCTION      0.00     0.16     0  07:08           0      0.0633       4.036
  NL_364               JUNCTION      0.00     0.52     0  07:08           0       0.213       0.712
  NL_366               JUNCTION      0.00     0.49     0  20:58           0       0.214       0.749
  NL_368               JUNCTION      0.00     0.48     0  20:58           0       0.215       0.773
  NL_370               JUNCTION      0.00     0.47     0  20:58           0       0.217       0.756
  NL_372               JUNCTION      0.00     0.57     0  07:08           0       0.133       1.009
  NL_374               JUNCTION      0.00     0.46     0  07:09           0       0.133       0.934
  NL_376               JUNCTION      0.00     0.41     0  07:09           0       0.134       0.935
  NL_378               JUNCTION      0.00     0.37     1  07:00           0       0.136       1.180
  NL_380               JUNCTION      0.00     0.67     0  07:11           0       0.184       0.715
  NL_382               JUNCTION      0.00     0.68     0  07:11           0       0.184       0.679
  NL_384               JUNCTION      0.00     0.70     0  07:11           0       0.185       0.810
  NL_386               JUNCTION      0.00     0.71     0  07:09           0       0.186       0.807
  NL_388               JUNCTION      0.00     0.73     0  07:09           0       0.188       0.750
  NL_390               JUNCTION      0.00     0.55     0  07:09           0       0.126       1.271
  NL_392               JUNCTION      0.00     0.57     0  07:09           0       0.127       1.074
  NL_394               JUNCTION      0.00     0.59     0  07:09           0       0.128       0.982
  NL_396               JUNCTION      0.00     0.61     0  07:09           0       0.131       0.997
  NL_398               JUNCTION      0.00     0.62     0  07:10           0       0.134       1.336
  NL_400               JUNCTION      0.00     0.63     0  07:10           0       0.136       1.307
  NL_402               JUNCTION      0.00     0.35     0  07:10           0      0.0611       2.029
  NL_404               JUNCTION      0.00     0.36     0  07:09           0      0.0635       2.067
  NL_406               JUNCTION      0.00     0.38     0  07:09           0      0.0664       2.015
  NL_408               JUNCTION      0.00     0.39     0  07:09           0      0.0698       2.245
  NL_410               JUNCTION      0.00     2.08     1  07:43           0         1.5       0.117
  NL_412               JUNCTION      0.00     2.08     1  07:34           0         1.5       0.133
  NL_414               JUNCTION      0.00     2.09     1  07:44           0        1.51       0.120
  NL_416               JUNCTION      0.00     0.78     0  08:00           0       0.361       0.298
  NL_418               JUNCTION      0.00     0.78     0  07:52           0       0.362       0.304
  NL_420               JUNCTION      0.00     0.78     0  07:52           0       0.365       0.529
  NL_422               JUNCTION      0.00     0.78     1  07:49           0       0.367       0.411
  NL_424               JUNCTION      0.00     0.78     1  07:55           0        0.37       0.406
  NL_426               JUNCTION      0.00     0.84     1  07:01           0       0.373       0.397
  NL_428               JUNCTION      0.00     0.90     1  07:00           0       0.377       0.510
  NL_430               JUNCTION      0.00     0.92     1  07:00           0       0.381       0.485
  NL_432               JUNCTION      0.00     0.83     1  07:00           0       0.384       0.471
  NL_434               JUNCTION      0.00     1.55     1  01:05           0        1.16       0.127
  NL_436               JUNCTION      0.00     1.54     1  01:05           0        1.16       0.128
  NL_438               JUNCTION      0.00     1.54     1  00:59           0        1.16       0.138
  NL_440               JUNCTION      0.00     1.42     0  06:18           0       0.567       0.321
  NL_442               JUNCTION      0.00     1.42     0  06:18           0       0.571       0.324
  NL_444               JUNCTION      0.00     1.42     0  06:19           0       0.575       0.393
  NL_446               JUNCTION      0.00     1.42     0  06:19           0        0.58       0.395
  NL_448               JUNCTION      0.00     0.29     0  05:51           0       0.116       1.480
  NL_450               JUNCTION      0.00     0.25     0  07:03           0       0.114       1.602
  NL_452               JUNCTION      0.00     0.25     1  07:13           0       0.114       1.648
[...]
  357                        28.88     28.88     28.88     20.29        16.93
  359                        28.88     28.88     28.88     23.13        18.21
  361                        28.88     28.88     28.89     29.06        26.46
  363                        28.87     28.87     28.88     28.81        25.79
  365                        28.87     28.87     28.87     29.13        26.14
  367                        28.86     28.86     28.86     28.99        25.94
  369                        28.85     28.85     28.86     26.34        21.95
  37                         28.85     28.85     28.85     28.63        25.14
  371                        28.85     28.85     28.85     26.58        21.82
  373                        28.85     28.85     28.85     26.37        22.57
  375                        28.85     28.85     28.85     26.32        23.90
  377                        29.40     29.41     29.40     23.17        21.28
  379                        29.41     29.41     29.41     22.18        21.08
  381                        29.42     29.42     29.42     22.33        21.16
  383                        29.43     29.43     29.43     22.77        21.43
  385                        29.44     29.44     29.44     23.25        21.24
  387                        29.46     29.46     29.46     20.18        18.56
  389                        29.47     29.47     29.47     19.71        18.00
  39                         28.86     28.86     28.86     29.54        26.02
  391                        29.48     29.48     29.48     19.98        17.68
  393                        29.48     29.49     29.48     20.43        17.35
  395                        29.49     29.50     29.49     20.87        17.11
  397                        29.50     29.51     29.50     25.89        18.31
  399                        29.53     29.53     29.53     11.57        10.68
  401                        29.54     29.54     29.54     12.36        10.97
  403                        29.55     29.55     29.55     12.31        10.14
  405                        29.56     29.57     29.56     15.25        10.15
  407                         0.01     29.29      0.01     31.19         0.01
  409                        29.33     29.36     29.33     31.52        29.33
  41                         28.88     28.88     28.88     20.74        17.15
  411                        29.39     29.42     29.39     31.74        29.39
  413                        29.44     29.44     29.44     32.51        27.81
  415                        29.43     29.43     29.44     33.27        27.69
  417                        29.42     29.42     29.43     34.09        28.41
  419                        29.42     29.42     29.42     34.63        28.20
  421                        29.41     29.41     29.41     34.88        28.07
  423                        29.41     29.42     29.41     35.13        27.93
  425                        29.43     29.45     29.43     35.36        28.48
  427                        29.48     29.54     29.48     35.64        28.77
  429                        29.60     29.67     29.60     35.87        28.81
  43                         28.87     28.89     28.87     32.31        28.65
  431                        29.44     29.51     29.44     30.24        29.44
  433                        29.52     29.57     29.52     30.47        29.52
  435                        29.61     29.66     29.61     30.68        29.61
  437                        29.70     29.83     29.70     31.00        29.70
  439                        29.86     29.88     29.86     31.32        29.86
  441                        29.90     29.93     29.90     32.02        29.90
  443                        29.96     29.98     29.96     32.71        29.96
  445                        30.00     30.00     30.01     25.36        21.02
  447                        30.00     30.00     30.00     25.17        20.81
  449                        30.00     30.00     30.00     25.13        21.72
  45                         28.49     28.50     28.49     29.40        27.97
  451                        30.00     30.00     30.00     25.20        22.92
  453                        29.66     29.66     29.70     30.02        29.51
  455                        29.57     29.57     29.61     29.80        29.50
  457                        29.53     29.53     29.53     29.73        29.50
  459                        29.53     29.54     29.53     31.81        29.47
  461                        30.01     30.17     30.01     32.64        30.00
  463                        30.33     30.41     30.33     33.00        30.33
  465                        30.47     30.51     30.47     33.41        30.47
  467                        30.55     30.55     30.57     28.33        21.88
  469                        30.53     30.53     30.54     28.42        22.40
  47                         29.71     29.71     29.71      4.49         5.29
  471                        30.53     30.53     30.53     26.75        23.45
  473                        30.57     30.75     30.57     33.86        28.89
  475                        30.85     30.90     30.85     34.16        28.98
  477                        30.95     31.13     30.95     34.50        28.80
  479                        31.40     31.40     31.40     20.72        16.56
  481                        31.40     31.42     31.40     22.26        17.21
  483                        31.43     31.44     31.43     24.22        15.94
  485                        31.40     31.55     31.40     17.95        15.49
  487                        31.71     31.88     31.71     18.42        15.70
  489                        32.05     32.24     32.05     18.50        16.20
  49                         29.99     30.00     29.99      9.57         2.30
  491                        32.46     32.68     32.46     18.66        16.72
  493                        33.10     33.29     33.10     18.57        16.60
  495                        33.70     34.27     33.70     21.67        17.55
  497                        34.50     35.13     34.50     22.11        17.77
  499                        35.26     35.40     35.26     21.82        17.16
  501                        29.54     29.56     29.54     33.99        29.54
  503                        29.56     29.57     29.56     34.44        29.56
  505                        29.58     29.59     29.58     32.78        27.52
  507                        29.60     29.62     29.60     32.30        27.31
  509                        29.63     29.64     29.63     31.93        28.13
  51                         29.96     30.00     29.96     12.96         5.71
  511                        29.66     29.68     29.66     32.35        28.48
  513                        29.70     29.72     29.70     32.73        27.32
  515                        29.75     29.76     29.75     34.03        26.30
  517                        29.80     29.82     29.80     35.05        24.68
  519                        29.52     29.52     29.54     31.62        27.47
  521                        29.49     29.49     29.51     31.23        27.56
  523                        29.45     29.45     29.48     30.81        27.64
  525                        29.40     29.40     29.43     30.35        27.51
  527                        29.34     29.34     29.37     29.75        27.54
  529                        29.30     29.30     29.32     29.30        27.57
  53                         29.82     29.84     29.82     35.05        24.50
  531                        29.26     29.26     29.28     29.25        26.74
  533                        29.14     29.14     29.17      5.86         5.81
  535                        29.09     29.09     29.12      5.55         5.85
  537                        29.05     29.05     29.07      5.25         5.62
  539                        29.00     29.00     29.03      5.93         5.73
  541                        28.97     28.97     28.99      6.40         5.43
  543                        28.95     28.95     28.96      6.10         5.28
  545                        28.94     28.94     28.95      8.00         4.99
  547                        28.94     28.94     28.94      9.15         4.62
  549                        29.14     29.14     29.17      6.57         5.08
  55                         29.89     29.94     29.89     35.97        28.48
  551                        29.03     29.03     29.08      6.28         4.94
  553                        28.92     28.92     28.97      5.68         4.42
  555                        28.88     28.88     28.89      5.13         3.50
  557                        28.85     28.85     28.86      4.60         3.60
  559                        28.84     28.84     28.84      3.51         3.46
  561                        28.83     28.83     28.84      0.91         3.08
  563                        28.86     28.86     28.89      4.30         3.48
  565                        28.82     28.82     28.84      4.54         3.63
  567                        28.79     28.79     28.81      4.24         3.61
  569                        28.78     28.78     28.78      3.60         3.61
  57                         28.91     28.95     28.91      1.71         2.55
  571                        28.77     28.77     28.77      4.06         3.68
  573                        28.77     28.77     28.77      4.06         3.73
  575                        28.78     28.80     28.78      3.51         3.63
  577                        28.82     28.86     28.82      2.92         3.66
  579                        28.88     28.91     28.88      1.83         3.27
  581                        29.75     29.75     29.76      5.38         4.58
  583                        29.77     29.77     29.78      6.88         4.40
  585                        29.79     29.79     29.81     10.38         4.31
  587                        29.82     29.82     29.84     12.23         4.07
  589                        29.84     29.86     29.84     11.68         5.77
  59                         28.83     28.83     28.83      1.30         2.81
  591                        29.87     29.88     29.87     11.07         6.10
  593                        29.89     29.90     29.89     11.46         6.19
  595                        29.92     29.93     29.92     12.12         6.13
  597                        29.94     29.96     29.94     12.69         5.80
  599                        29.99     29.99     30.00      3.58         2.12
  601                        29.97     29.97     29.98      3.45         2.17
  603                        29.97     29.97     29.97      7.99         2.12
  605                        29.98     29.99     29.98      9.12         2.06
  607                        29.73     29.73     29.74      4.60         4.78
  609                        29.72     29.72     29.73      4.32         5.10
  61                         28.89     28.89     28.92      5.69         4.27
  611                        29.71     29.71     29.72      4.72         5.02
  613                        29.70     29.70     29.71     21.49         4.05
  615                         0.01      0.01     28.42      0.01         0.01
  617                        27.23     28.47     27.23     28.57        26.69
  619                        28.48     28.49     28.48     28.77        27.95
  621                        28.50     28.50     28.50     25.59        15.09
  623                        28.51     28.51     28.51     24.33        13.29
  625                        28.51     28.51     28.51     22.63        14.01
  627                        28.49     28.49     28.50     25.65        18.38
  629                        28.44     28.44     28.47     26.04        18.76
  63                         28.94     28.94     28.94      5.09         3.75
  631                        28.40     28.40     28.42     25.96        17.81
  633                        28.35     28.35     28.37     24.80        18.79
  635                        28.35     28.35     28.35     23.49        16.94
  637                        24.14     27.25     24.16     24.88        18.05
  641                        28.27     28.31     28.27     27.30        23.36
  643                        28.26     28.26     28.27     20.38        14.81
  645                        28.24     28.24     28.25     20.78        13.87
  647                        28.21     28.21     28.22     22.44        13.79
  65                         29.17     29.17     29.26     29.17        27.16
  651                        28.18     28.18     28.18     21.93        13.76
  653                        28.16     28.16     28.17     18.62        13.46
  655                        28.10     28.10     28.14     10.74        12.73
  657                        28.39     28.43     28.39     27.32        22.88
  659                        28.48     28.51     28.48     28.32        22.88
  661                        28.55     28.58     28.55     28.70        23.26
  663                        28.60     28.63     28.60     30.65        24.21
  665                        28.67     28.70     28.67     31.62        25.24
  667                        28.74     28.78     28.74     32.64        25.94
  669                        28.81     28.84     28.81     32.84        26.21
  67                         29.57     29.58     29.57     34.47        29.57
  671                        28.87     28.90     28.87     33.42        26.00
  673                        28.92     28.94     28.92     33.69        25.61
  675                        28.95     28.96     28.95     27.07        20.16
  677                        28.96     28.97     28.96     27.66        20.48
  679                        28.98     28.98     28.98     29.41        21.73
  681                        28.99     29.00     28.99     30.39        23.90
  683                        28.50     28.70     28.50     30.25        28.38
  685                        28.73     28.75     28.73     30.74        28.55
  687                        28.77     28.78     28.77     30.88        28.55
  689                        28.80     28.81     28.80     31.25        28.54
  69                         29.54     29.54     29.54     32.03        29.47
  691                        28.82     28.84     28.82     31.84        28.57
  693                        28.85     28.87     28.85     32.36        28.61
  695                        28.88     28.88     28.88     28.66        25.76
  697                        28.86     28.86     28.87     28.89        25.70
  699                        28.86     28.86     28.86     29.16        26.03
  701                        28.86     28.86     28.86     25.44        21.24
  703                        28.85     28.85     28.85     26.40        21.59
  705                        28.85     28.85     28.85     26.47        21.99
  707                        28.85     28.85     28.85     26.02        22.97
  709                        28.85     28.85     28.85     28.08        25.10
  71                         35.40     35.56     35.40     21.30        17.09
  711                        28.89     28.98     28.89     29.13        28.72
  713                        29.03     29.05     29.03     29.20        28.87
  715                        29.07     29.08     29.07     29.62        28.92
  717                        29.10     29.12     29.10     30.67        28.95
  719                        29.13     29.16     29.13     31.83        29.11
  721                        29.18     29.20     29.18     32.01        29.17
  723                        29.23     29.25     29.23     32.65        29.23
  725                        29.27     29.30     29.27     33.25        29.27
  727                        29.31     29.33     29.31     33.21        29.30
  729                        29.34     29.37     29.34     34.11        29.31
  73                         31.44     31.46     31.44     24.51        16.31
  731                        29.38     29.40     29.38     34.46        29.29
  733                        29.40     29.40     29.40     23.10        20.58
  735                        29.41     29.41     29.41     22.73        20.94
  737                        29.41     29.42     29.41     22.20        21.00
  739                        29.42     29.43     29.42     22.77        21.53
  741                        29.43     29.44     29.43     23.10        21.39
  743                        29.44     29.45     29.44     23.58        21.51
  745                        29.46     29.47     29.46     18.90        17.16
  747                        29.47     29.48     29.47     19.57        17.39
  749                        29.48     29.48     29.48     19.87        17.21
  75                         31.13     31.40     31.13     34.64        28.94
  751                        29.49     29.49     29.49     20.75        17.25
  753                        29.51     29.51     29.51     22.31        16.51
  755                        29.52     29.52     29.52     12.60        10.27
  757                        29.52     29.53     29.52     12.81        11.56
  759                        29.53     29.54     29.53     12.54        11.07
  761                        29.54     29.55     29.54     12.14        10.35
  763                        29.55     29.56     29.55     15.42        10.37
  765                        29.57     29.58     29.57     17.37        10.10
  767                        29.58     29.58     29.58     34.86        27.89
  769                        29.58     29.64     29.58     35.14        27.97
  77                         30.53     30.53     30.53     27.28        23.56
  771                        29.70     29.73     29.70     35.41        27.16
  773                        29.76     29.80     29.76     35.62        28.66
  775                        29.84     29.89     29.84     35.88        27.58
  779                        28.25     28.27     28.26     26.06        22.67
  781                        28.23     28.26     28.23     25.61        22.60
  783                        22.72     24.17     22.82     22.85        16.77
  785                         0.01      0.01     27.99      0.01         0.01
  787                        29.70     29.70     29.70     28.07        21.95
  79                         30.00     30.00     30.00     26.18        23.14
  81                         30.51     30.57     30.51     33.67        30.51
  83                         29.67     29.75     29.67     35.96        28.98
  85                         29.98     30.01     29.98     32.95        29.98
  87                         29.66     29.70     29.66     30.80        29.66
  91                         29.42     29.44     29.42     31.80        29.42
  93                         28.84     28.84     28.84      3.02         3.52
  95                         28.84     28.84     28.85      4.65         3.54
  97                         28.86     28.86     28.88      5.18         3.61
  99                         28.86     28.88     28.86      2.02         3.58
  
  
  ***************
  Pumping Summary
  ***************
  
  ---------------------------------------------------------------------------------------------------------
                                                  Min       Avg       Max     Total     Power    % Time Off
                        Percent   Number of      Flow      Flow      Flow    Volume     Usage    Pump Curve
  Pump                 Utilized   Start-Ups       CFS       CFS       CFS  10^6 gal     Kw-hr    Low   High
  ---------------------------------------------------------------------------------------------------------
  5006                    10.05         288      0.00      5.97     20.00     0.470    508.62    0.0    0.2
  5008                    28.73         718      0.00      5.95     20.00     1.570   1753.78    0.0    0.0
  

  Analysis begun on:  Tue Jun 23 20:41:32 2026
  Analysis ended on:  Tue Jun 23 20:41:34 2026
  Total elapsed time: 00:00:02