
  EPA STORM WATER MANAGEMENT MODEL - VERSION 5.2 (Build 5.2.4)
  ------------------------------------------------------------

  WARNING 04: minimum elevation drop used for Conduit 13
  WARNING 04: minimum elevation drop used for Conduit 23
  WARNING 04: minimum elevation drop used for Conduit 31
  WARNING 04: minimum elevation drop used for Conduit 33
  WARNING 04: minimum elevation drop used for Conduit 43
  WARNING 02: maximum depth increased for Node 24
  
  ****************
  Analysis Options
  ****************
  Flow Units ............... CFS
  Process Models:
    Rainfall/Runoff ........ NO
    RDII ................... NO
    Snowmelt ............... NO
    Groundwater ............ NO
    Flow Routing ........... YES
    Ponding Allowed ........ NO
    Water Quality .......... NO
  Flow Routing Method ...... DYNWAVE
  Surcharge Method ......... EXTRAN
  Starting Date ............ 01/01/2002 00:00:00
  Ending Date .............. 01/01/2002 00:00:00
  Antecedent Dry Days ...... 5.0
  Report Time Step ......... 00:05:00
  Routing Time Step ........ 300.00 sec
  Variable Time Step ....... YES
  Maximum Trials ........... 8
  Number of Threads ........ 1
  Head Tolerance ........... 0.005000 ft
  
  
  **************************        Volume        Volume
  Flow Routing Continuity        acre-feet      10^6 gal
  **************************     ---------     ---------
  Dry Weather Inflow .......        15.867         5.171
  Wet Weather Inflow .......         0.000         0.000
  Groundwater Inflow .......         0.000         0.000
  RDII Inflow ..............         0.000         0.000
  External Inflow ..........         0.000         0.000
  External Outflow .........        29.196         9.514
  Flooding Loss ............         0.037         0.012
  Evaporation Loss .........         0.000         0.000
  Exfiltration Loss ........         0.000         0.000
  Initial Stored Volume ....         0.012         0.004
  Final Stored Volume ......         0.016         0.005
  Continuity Error (%) .....       -84.200
  
  
  *************************
  Highest Continuity Errors
  *************************
  Node 8000 (-269.38%)
  Node 40 (-190.17%)
  Node 24 (7.47%)
  Node 26 (-5.42%)
  Node 18 (-1.85%)
  
  
  ***************************
  Time-Step Critical Elements
  ***************************
  Link 25 (50.41%)
  Link 21 (41.88%)
  Link 45 (5.17%)
  Link 13 (1.82%)
  
  
  ********************************
  Highest Flow Instability Indexes
  ********************************
  Link 45 (79)
  Link 5004 (78)
  Link 43 (78)
  Link 25 (77)
  Link 5000 (77)
  
  
  *********************************
  Most Frequent Nonconverging Nodes
  *********************************
  Node 14 (99.98%)
  Node 40 (99.92%)
  Node 16 (99.60%)
  Node 18 (99.17%)
  Node 10 (99.16%)
  
  
  *************************
  Routing Time Step Summary
  *************************
  Minimum Time Step           :     0.50 sec
  Average Time Step           :     5.51 sec
  Maximum Time Step           :     8.74 sec
  % of Time in Steady State   :     0.00
  Average Iterations per Step :     8.00
  % of Steps Not Converging   :    99.98
  Time Step Frequencies       :
     300.000 - 83.462 sec      :     0.00 %
     83.462 - 23.220 sec      :     0.00 %
     23.220 -  6.460 sec      :     2.17 %
      6.460 -  1.797 sec      :    96.46 %
      1.797 -  0.500 sec      :     1.37 %
  
  
  ******************
  Node Depth Summary
  ******************
  
  ---------------------------------------------------------------------------------
                                 Average  Maximum  Maximum  Time of Max    Reported
                                   Depth    Depth      HGL   Occurrence   Max Depth
  Node                 Type         Feet     Feet     Feet  days hr:min        Feet
  ---------------------------------------------------------------------------------
  10                   JUNCTION    17.31    29.95    19.95     0  00:00       20.29
  12                   JUNCTION     2.73     5.00     5.00     0  00:00        4.38
  16                   JUNCTION     8.49    34.91    34.91     0  11:19       12.69
  18                   JUNCTION    12.77    30.09    25.09     0  11:19       16.39
  20                   JUNCTION     0.42     0.61     5.61     0  11:19        0.59
  22                   JUNCTION     1.98     3.63     3.63     0  07:27        3.01
  26                   JUNCTION     1.98    18.96    18.96     0  00:00        3.50
  30                   JUNCTION     1.98    15.67    15.67     0  00:00        3.43
  36                   JUNCTION     0.60     0.93     1.93     0  03:02        0.76
  40                   JUNCTION   196.50  1005.00  1005.00     0  00:00      989.38
  14                   OUTFALL      0.81     0.91     0.91     0  13:54        0.89
  24                   DIVIDER      0.70     0.90     0.90     0  13:54        0.84
  8000                 STORAGE      0.00     1.00    -4.00     0  00:00        0.00
  8002                 STORAGE      0.00     0.98    -4.02     0  00:00        0.01
  9000                 STORAGE      0.00     0.99    -4.01     0  00:00        0.01
  
  
  *******************
  Node Inflow Summary
  *******************
  
  -------------------------------------------------------------------------------------------------
                                  Maximum  Maximum                  Lateral       Total        Flow
                                  Lateral    Total  Time of Max      Inflow      Inflow     Balance
                                   Inflow   Inflow   Occurrence      Volume      Volume       Error
  Node                 Type           CFS      CFS  days hr:min    10^6 gal    10^6 gal     Percent
  -------------------------------------------------------------------------------------------------
  10                   JUNCTION      0.00     6.95     0  00:00           0        9.44      -0.629
  12                   JUNCTION      0.00     5.79     0  00:00           0        9.49      -0.043
  16                   JUNCTION      0.00     5.00     0  00:00           0        9.27      -0.020
  18                   JUNCTION      0.00     6.30     0  00:00           0        9.27      -1.816
  20                   JUNCTION      0.00     6.59     0  11:19           0         9.5       0.112
  22                   JUNCTION      0.00     9.07     0  00:00           0        9.57      -0.145
  26                   JUNCTION      0.00     5.00     0  00:00           0        0.03      -5.141
  30                   JUNCTION      0.00     5.12     0  00:00           0       0.104      -0.364
  36                   JUNCTION      2.00     2.00     0  00:05        5.17        5.17      51.447
  40                   JUNCTION      0.00    11.00     0  00:00           0        3.45     -65.538
  14                   OUTFALL       0.00     4.88     0  13:54           0        9.51       0.000
  24                   DIVIDER       0.00     8.16     0  00:00           0          10       8.077
  8000                 STORAGE       0.00     0.00     0  00:00           0    0.000587     -72.928
  8002                 STORAGE       0.00    16.24     0  04:39           0        3.41      -1.074
  9000                 STORAGE       0.00     6.26     0  00:00           0        9.26      -0.140
  
  
  **********************
  Node Surcharge Summary
  **********************
  
  Surcharging occurs when water rises above the top of the highest conduit.
  ---------------------------------------------------------------------
                                               Max. Height   Min. Depth
                                   Hours       Above Crown    Below Rim
  Node                 Type      Surcharged           Feet         Feet
  ---------------------------------------------------------------------
  10                   JUNCTION       95.99         28.948        0.000
  12                   JUNCTION       95.77          3.999        7.001
  16                   JUNCTION       95.99         33.914        0.000
  18                   JUNCTION       95.99         29.089        0.000
  22                   JUNCTION       93.40          2.629        7.371
  26                   JUNCTION       91.93         17.958        0.000
  30                   JUNCTION       92.85         14.673        0.000
  40                   JUNCTION       95.78       1004.750        0.000
  
  
  *********************
  Node Flooding Summary
  *********************
  
  Flooding refers to all water that overflows a node, whether it ponds or not.
  --------------------------------------------------------------------------
                                                             Total   Maximum
                                 Maximum   Time of Max       Flood    Ponded
                        Hours       Rate    Occurrence      Volume     Depth
  Node                 Flooded       CFS   days hr:min    10^6 gal      Feet
  --------------------------------------------------------------------------
  40                      0.31      9.84      0  00:00       0.019  1000.000
  
  
  **********************
  Storage Volume Summary
  **********************
  
  ------------------------------------------------------------------------------------------------
                         Average    Avg   Evap  Exfil     Maximum    Max    Time of Max    Maximum
                          Volume   Pcnt   Pcnt   Pcnt      Volume   Pcnt     Occurrence    Outflow
  Storage Unit          1000 ftł   Full   Loss   Loss    1000 ftł   Full    days hr:min        CFS
  ------------------------------------------------------------------------------------------------
  8000                     0.000    0.0    0.0    0.0       0.078   10.0       0  00:00       5.00
  8002                     0.000    0.0    0.0    0.0       0.077    9.8       0  00:00      11.00
  9000                     0.000    0.0    0.0    0.0       0.078    9.9       0  00:00       5.00
  
  
  ***********************
  Outfall Loading Summary
  ***********************
  
  -----------------------------------------------------------
                         Flow       Avg       Max       Total
                         Freq      Flow      Flow      Volume
  Outfall Node           Pcnt       CFS       CFS    10^6 gal
  -----------------------------------------------------------
  14                    99.96      3.65      4.88       9.513
  -----------------------------------------------------------
  System                99.96      3.65      4.88       9.513
  
  
  ********************
  Link Flow Summary
  ********************
  
  -----------------------------------------------------------------------------
                                 Maximum  Time of Max   Maximum    Max/    Max/
                                  |Flow|   Occurrence   |Veloc|    Full    Full
  Link                 Type          CFS  days hr:min    ft/sec    Flow   Depth
  -----------------------------------------------------------------------------
  11                   CONDUIT      6.59     0  11:19     11.70    0.37    0.81
  13                   CONDUIT      4.84     0  00:01      7.57   43.99    1.00
  17                   CONDUIT      6.30     0  00:00     14.14    0.54    1.00
  19                   CONDUIT      6.95     0  00:00     16.78    0.52    1.00
  21                   CONDUIT      5.79     0  00:00     14.56    0.56    0.81
  23                   CONDUIT      4.88     0  13:54      6.32   44.39    0.96
  25                   CONDUIT      6.26     0  00:00     13.02    0.59    0.65
  31                   CONDUIT      5.12     0  00:00     11.60   57.30    1.00
  33                   CONDUIT      5.19     0  00:00     10.63   66.46    1.00
  35                   CONDUIT      0.00     0  00:00      0.00    0.00    0.10
  43                   CONDUIT      8.16     0  00:00    >50.00  2667.15    1.00
  45                   CONDUIT     16.24     0  04:39    >50.00    0.07    0.17
  5000                 PUMP         5.00     0  00:00              1.00
  5002                 PUMP         5.00     0  00:00              1.00
  5004                 PUMP        11.00     0  00:00              1.00
  
  
  ***************************
  Flow Classification Summary
  ***************************
  
  -------------------------------------------------------------------------------------
                      Adjusted    ---------- Fraction of Time in Flow Class ---------- 
                       /Actual         Up    Down  Sub   Sup   Up    Down  Norm  Inlet 
  Conduit               Length    Dry  Dry   Dry   Crit  Crit  Crit  Crit  Ltd   Ctrl  
  -------------------------------------------------------------------------------------
  11                      1.00   0.00  0.00  0.00  0.07  0.93  0.00  0.00  0.00  0.00
  13                      1.00   0.00  0.00  0.00  1.00  0.00  0.00  0.00  0.00  0.00
  17                      1.00   0.00  0.00  0.00  1.00  0.00  0.00  0.00  0.00  0.00
  19                      1.00   0.00  0.00  0.00  1.00  0.00  0.00  0.00  0.00  0.00
  21                      1.00   0.00  0.00  0.00  0.07  0.93  0.00  0.00  1.00  0.00
  23                      1.00   0.00  0.00  0.00  1.00  0.00  0.00  0.00  0.00  0.00
  25                      1.00   0.00  0.00  0.00  0.00  1.00  0.00  0.00  0.00  0.00
  31                      1.00   0.00  0.00  0.00  1.00  0.00  0.00  0.00  0.00  0.00
  33                      1.00   0.00  0.00  0.00  1.00  0.00  0.00  0.00  0.01  0.00
  35                      1.00   1.00  0.00  0.00  0.00  0.00  0.00  0.00  0.00  0.00
  43                      1.00   0.00  0.00  0.00  0.99  0.01  0.00  0.00  0.23  0.00
  45                      1.00   0.00  0.00  0.00  0.27  0.73  0.00  0.00  0.00  0.00
  
  
  *************************
  Conduit Surcharge Summary
  *************************
  
  ----------------------------------------------------------------------------
                                                           Hours        Hours 
                         --------- Hours Full --------   Above Full   Capacity
  Conduit                Both Ends  Upstream  Dnstream   Normal Flow   Limited
  ----------------------------------------------------------------------------
  11                          0.01      0.01     95.99      0.01         0.01
  13                         92.88     95.56     92.97     95.99        92.25
  17                         95.99     95.99     95.99      0.01         0.01
  19                         95.99     95.99     95.99      0.01         0.01
  21                          0.01      0.01     95.60      0.01         0.01
  23                          0.01     92.97      0.01     95.99         0.01
  31                         91.22     91.52     92.51      1.50        47.72
  33                         91.73     92.51     92.96     48.63        47.99
  43                         73.82     74.07     95.71     95.66        70.90
  
  
  ***************
  Pumping Summary
  ***************
  
  ---------------------------------------------------------------------------------------------------------
                                                  Min       Avg       Max     Total     Power    % Time Off
                        Percent   Number of      Flow      Flow      Flow    Volume     Usage    Pump Curve
  Pump                 Utilized   Start-Ups       CFS       CFS       CFS  10^6 gal     Kw-hr    Low   High
  ---------------------------------------------------------------------------------------------------------
  5000                   100.00           1      0.00      3.57      5.00     9.305    404.39    0.0    0.0
  5002                     0.02           1      0.00      4.83      5.00     0.002      0.07    0.0    0.0
  5004                    49.47       14467      0.00      2.79     11.00     3.595   2452.37    0.0    0.0
  

  Analysis begun on:  Tue Jun 23 20:42:10 2026
  Analysis ended on:  Tue Jun 23 20:42:10 2026
  Total elapsed time: < 1 sec