
  EPA STORM WATER MANAGEMENT MODEL - VERSION 5.2 (Build 5.2.4)
  ------------------------------------------------------------

  Scenario Run :  ONEMINUTE 
  WARNING 02: maximum depth increased for Node 80408C
  
  *************
  Element Count
  *************
  Number of rain gages ...... 0
  Number of subcatchments ... 0
  Number of nodes ........... 61
  Number of links ........... 61
  Number of pollutants ...... 1
  Number of land uses ....... 0
  
  
  *****************
  Pollutant Summary
  *****************
                               Ppt.      GW         Kdecay
  Name                 Units   Concen.   Concen.    1/days    CoPollutant
  -----------------------------------------------------------------------
  TSS                   MG/L     10.00      0.00      0.00
  
  
  ************
  Node Summary
  ************
                                           Invert      Max.    Ponded    External
  Name                 Type                 Elev.     Depth      Area    Inflow  
  -------------------------------------------------------------------------------
  10309                JUNCTION            101.60      9.40       0.0
  10309A               JUNCTION            101.60      9.40       0.0
  10309B               JUNCTION            101.60      9.40       0.0
  10309C               JUNCTION            101.60      9.40       0.0
  10309D               JUNCTION            101.60      9.40       0.0
  10309E               JUNCTION            101.60      9.40       0.0
  15009                JUNCTION            111.50     13.50       0.0
  15009A               JUNCTION            111.50     13.50       0.0
  15009B               JUNCTION            111.50     13.50       0.0
  15009C               JUNCTION            111.50     13.50       0.0
  15009D               JUNCTION            111.50     13.50       0.0
  15009E               JUNCTION            121.00     13.50       0.0
  16009                JUNCTION            102.00     18.00       0.0
  16009A               JUNCTION            102.00     18.00       0.0
  16009B               JUNCTION            102.00     18.00       0.0
  16009C               JUNCTION            102.00     18.00       0.0
  16009D               JUNCTION            102.00     18.00       0.0
  16009E               JUNCTION            102.00     18.00       0.0
  16109                JUNCTION            102.80     22.20       0.0
  16109A               JUNCTION            102.80     22.20       0.0
  16109B               JUNCTION            102.80     22.20       0.0
  16109C               JUNCTION            102.80     22.20       0.0
  16109D               JUNCTION            102.80     22.20       0.0
  16109E               JUNCTION            102.80     22.20       0.0
  80408                JUNCTION            120.00     13.40       0.0    Yes
  80408A               JUNCTION            124.60     13.40       0.0    Yes
  80408B               JUNCTION            124.60     13.40       0.0    Yes
  80408C               JUNCTION            124.60      4.00       0.0    Yes
  80408D               JUNCTION            124.60     13.40       0.0    Yes
  80608                JUNCTION            118.30     16.70       0.0
  80608A               JUNCTION            118.30     16.70       0.0
  80608B               JUNCTION            118.30     16.70       0.0
  80608C               JUNCTION            118.30     16.70       0.0
  80608D               JUNCTION            118.30     16.70       0.0
  81009                JUNCTION            128.20      8.80       0.0    Yes
  81009A               JUNCTION            128.20      8.80       0.0    Yes
  81009B               JUNCTION            128.20      8.80       0.0    Yes
  81009C               JUNCTION            128.20      8.80       0.0    Yes
  81009D               JUNCTION            128.20      8.80       0.0    Yes
  81009E               JUNCTION            128.20      8.80       0.0    Yes
  81309                JUNCTION            117.50     12.50       0.0
  81309A               JUNCTION            117.50     12.50       0.0
  81309B               JUNCTION            117.50     12.50       0.0
  81309C               JUNCTION            117.50     12.50       0.0
  81309D               JUNCTION            117.50     12.50       0.0
  81309E               JUNCTION            117.50     12.50       0.0
  82308D               JUNCTION            112.30     42.70       0.0
  82309                JUNCTION            112.30     42.70       0.0    Yes
  82309A               JUNCTION            112.30     42.70       0.0    Yes
  82309B               JUNCTION            112.30     42.70       0.0    Yes
  82309C               JUNCTION            112.30     13.00       0.0    Yes
  10208                OUTFALL              89.90      9.00       0.0
  10208A               OUTFALL              89.90      9.00       0.0
  10208B               OUTFALL              89.90      9.00       0.0
  10208C               OUTFALL              89.90      9.00       0.0
  10208D               OUTFALL              89.90      9.00       0.0
  10208E               OUTFALL              89.90      9.00       0.0
  Tank1_1              STORAGE             112.30     42.70       0.0    Yes
  Tank2_1              STORAGE             112.30     21.00       0.0    Yes
  Tank3_1              STORAGE             118.30     16.70       0.0
  Tank4_1              STORAGE             124.60     13.40       0.0    Yes
  
  
  ************
  Link Summary
  ************
  Name             From Node        To Node          Type            Length    %Slope Roughness
  ---------------------------------------------------------------------------------------------
  1030             10309            10208            CONDUIT         4500.0    0.2600    0.2000
  1030A            10309A           10208A           CONDUIT         4500.0    0.2600    0.0160
  1030B            10309B           10208B           CONDUIT         4500.0    0.2600    0.0160
  1030C            10309C           10208C           CONDUIT         4500.0    0.2600    0.0160
  1030D            10309D           10208D           CONDUIT         4500.0    0.2600    0.0160
  1030E            10309E           10208E           CONDUIT         4500.0    0.2600    0.0160
  1570             15009            16009            CONDUIT         5000.0    0.1900    0.0154
  1570A            15009A           16009A           CONDUIT         5000.0    0.1900    0.0154
  1570B            15009B           16009B           CONDUIT         5000.0    0.1900    0.0154
  1570C            15009C           16009C           CONDUIT           33.0   30.0604    0.0154
  1570D            15009D           16009D           CONDUIT         5000.0    0.1900    0.0154
  1570E            15009E           16009E           CONDUIT         5000.0    0.3800    0.0154
  1600             16009            16109            CONDUIT          500.0   -0.1600    0.0150
  1600A            16009A           16109A           CONDUIT          500.0   -0.1600    0.0150
  1600B            16009B           16109B           CONDUIT          500.0   -0.1600    0.0150
  1600C            16009C           16109C           CONDUIT          500.0   -0.1600    0.0150
  1600D            16009D           16109D           CONDUIT          500.0   -0.1600    0.0150
  1600E            16009E           16109E           CONDUIT          500.0   -0.1600    0.0150
  1602             82309            16109            CONDUIT         5000.0    0.1900    0.0340
  1602A            82309A           16109A           CONDUIT         5000.0    0.1900    0.0340
  1602B            82309B           16109B           CONDUIT         5000.0    0.1900    0.0340
  1602C            82309C           16109C           CONDUIT         5000.0    0.1900    0.0340
  1602D            Tank1_1          16109D           CONDUIT         5000.0    0.1900    0.0340
  1602E            Tank2_1          16109E           CONDUIT         5000.0    0.1900    0.0340
  1630             16009            10309            CONDUIT          300.0    0.1333    0.0150
  1630A            16009A           10309A           CONDUIT          300.0    0.1333    0.0150
  1630B            16009B           10309B           CONDUIT          300.0    0.1333    0.0150
  1630C            16009C           10309C           CONDUIT          300.0    0.1333    0.0150
  1630D            16009D           10309D           CONDUIT          300.0    0.1333    0.0150
  1630E            16009E           10309E           CONDUIT          300.0    0.1333    0.0150
  8040             80408            80608            CONDUIT         1800.0    0.0944    0.0150
  8040A            80408A           80608A           CONDUIT         1800.0    0.3500    0.0150
  8040B            80408B           80608B           CONDUIT         1800.0    0.3500    0.0150
  8040C            80408C           80608C           CONDUIT         1800.0    0.3500    0.0150
  8040D            80408D           80608D           CONDUIT         1800.0    0.3500    0.0150
  8040E            Tank4_1          Tank3_1          CONDUIT         1800.0    0.3500    0.0150
  8060             80608            82309            CONDUIT         2075.0    0.1831    0.0150
  8060A            80608A           82309A           CONDUIT         2075.0    0.1831    0.0150
  8060B            80608B           82309B           CONDUIT         2075.0    0.1831    0.0150
  8060C            80608C           82309C           CONDUIT         2075.0    0.1831    0.0150
  8060D            80608D           Tank1_1          CONDUIT         2075.0    0.1831    0.0150
  8060E            Tank3_1          Tank2_1          CONDUIT         2075.0    0.1831    0.0150
  8100             81009            81309            CONDUIT         5100.0    0.2098    0.0150
  8100A            81009A           81309A           CONDUIT         5100.0    0.2098    0.0150
  8100B            81009B           81309B           CONDUIT         5100.0    0.2098    0.0150
  8100C            81009C           81309C           CONDUIT         5100.0    0.2098    0.0150
  8100D            81009D           81309D           CONDUIT         5100.0    0.2098    0.0150
  8100E            81009E           81309E           CONDUIT         5100.0    0.2098    0.0150
  8130             81309            15009            CONDUIT         3500.0    0.1714    0.0150
  8130A            81309A           15009A           CONDUIT         3500.0    0.1714    0.0150
  8130B            81309B           15009B           CONDUIT         3500.0    0.1714    0.0150
  8130C            81309C           15009C           CONDUIT         3500.0    0.1714    0.0150
  8130D            81309D           15009D           CONDUIT         3500.0    0.1714    0.0150
  8130E            81309E           15009E           CONDUIT         3500.0   -0.1000    0.0150
  L1_1             Tank2_1          15009E           TYPE3 PUMP  
  L2_1             Tank2_1          15009E           TYPE3 PUMP  
  L3_1             Tank2_1          15009E           TYPE3 PUMP  
  L4_1             Tank2_1          15009E           TYPE3 PUMP  
  OR1@82309B-15009B 82309B           15009B           ORIFICE     
  OR1@82309D-82308D Tank1_1          82308D           ORIFICE     
  WEIR1@82309C-15009C 82309C           15009C           WEIR        
  
  
  *********************
  Cross Section Summary
  *********************
                                        Full     Full     Hyd.     Max.   No. of     Full
  Conduit          Shape               Depth     Area     Rad.    Width  Barrels     Flow
  ---------------------------------------------------------------------------------------
  1030             TRIANGULAR           9.00   243.00     4.27    54.00        1 163046.83
  1030A            TRIANGULAR           9.00   243.00     4.27    54.00        1 2038085.32
  1030B            TRIANGULAR           9.00   243.00     4.27    54.00        1 2038085.32
  1030C            TRIANGULAR           9.00   243.00     4.27    54.00        1 2038085.32
  1030D            TRIANGULAR           9.00   243.00     4.27    54.00        1 2038085.32
  1030E            TRIANGULAR           9.00   243.00     4.27    54.00        1 2038085.32
  1570             CIRCULAR             5.50    23.76     1.38     5.50        1 83157.17
  1570A            CIRCULAR             5.50    23.76     1.38     5.50        1 83157.17
  1570B            CIRCULAR             5.50    23.76     1.38     5.50        1 83157.17
  1570C            CIRCULAR             5.50    23.76     1.38     5.50        1 1045972.08
  1570D            CIRCULAR             5.50    23.76     1.38     5.50        1 83157.17
  1570E            FORCE_MAIN           5.50    23.76     1.38     5.50        1 139662.24
  1600             CIRCULAR             6.00    28.27     1.50     6.00        1 98805.64
  1600A            CIRCULAR             6.00    28.27     1.50     6.00        1 98805.64
  1600B            CIRCULAR             6.00    28.27     1.50     6.00        1 98805.64
  1600C            CIRCULAR             6.00    28.27     1.50     6.00        1 98805.64
  1600D            CIRCULAR             6.00    28.27     1.50     6.00        1 98805.64
  1600E            CIRCULAR             6.00    28.27     1.50     6.00        1 98805.64
  1602             CIRCULAR             5.00    19.63     1.25     5.00        1 29211.98
  1602A            CIRCULAR             5.00    19.63     1.25     5.00        1 29211.98
  1602B            CIRCULAR             5.00    19.63     1.25     5.00        1 29211.98
  1602C            CIRCULAR             5.00    19.63     1.25     5.00        1 29211.98
  1602D            CIRCULAR             5.00    19.63     1.25     5.00        1 29211.98
  1602E            CIRCULAR             5.00    19.63     1.25     5.00        1 29211.98
  1630             TRIANGULAR           9.00   243.00     4.27    54.00        1 1556801.49
  1630A            TRIANGULAR           9.00   243.00     4.27    54.00        1 1556801.49
  1630B            TRIANGULAR           9.00   243.00     4.27    54.00        1 1556801.49
  1630C            TRIANGULAR           9.00   243.00     4.27    54.00        1 1556801.49
  1630D            TRIANGULAR           9.00   243.00     4.27    54.00        1 1556801.49
  1630E            TRIANGULAR           9.00   243.00     4.27    54.00        1 1556801.49
  8040             FORCE_MAIN           4.00    12.57     1.00     4.00        1 28865.93
  8040A            CIRCULAR             4.00    12.57     1.00     4.00        1 49565.57
  8040B            CIRCULAR             4.00    12.57     1.00     4.00        1 49565.57
  8040C            CIRCULAR             4.00    12.57     1.00     4.00        1 49565.57
  8040D            CIRCULAR             4.00    12.57     1.00     4.00        1 49565.57
  8040E            CIRCULAR             4.00    12.57     1.00     4.00        1 49565.57
  8060             CIRCULAR             4.00    12.57     1.00     4.00        1 35853.20
  8060A            CIRCULAR             4.00    12.57     1.00     4.00        1 35853.20
  8060B            CIRCULAR             4.00    12.57     1.00     4.00        1 35853.20
  8060C            CIRCULAR             4.00    12.57     1.00     4.00        1 35853.20
  8060D            CIRCULAR             4.00    12.57     1.00     4.00        1 35853.20
  8060E            CIRCULAR             4.00    12.57     1.00     4.00        1 35853.20
  8100             CIRCULAR             4.50    15.90     1.12     4.50        1 52536.21
  8100A            CIRCULAR             4.50    15.90     1.12     4.50        1 52536.21
  8100B            CIRCULAR             4.50    15.90     1.12     4.50        1 52536.21
  8100C            CIRCULAR             4.50    15.90     1.12     4.50        1 52536.21
  8100D            CIRCULAR             4.50    15.90     1.12     4.50        1 52536.21
  8100E            CIRCULAR             4.50    15.90     1.12     4.50        1 52536.21
  8130             CIRCULAR             4.50    15.90     1.12     4.50        1 47489.04
  8130A            CIRCULAR             4.50    15.90     1.12     4.50        1 47489.04
  8130B            CIRCULAR             4.50    15.90     1.12     4.50        1 47489.04
  8130C            CIRCULAR             4.50    15.90     1.12     4.50        1 47489.04
  8130D            CIRCULAR             4.50    15.90     1.12     4.50        1 47489.04
  8130E            CIRCULAR             4.50    15.90     1.12     4.50        1 36270.34
  
  
  ****************
  Analysis Options
  ****************
  Flow Units ............... LPS
  Process Models:
    Rainfall/Runoff ........ NO
    RDII ................... NO
    Snowmelt ............... NO
    Groundwater ............ NO
    Flow Routing ........... YES
    Ponding Allowed ........ NO
    Water Quality .......... YES
  Flow Routing Method ...... DYNWAVE
  Surcharge Method ......... EXTRAN
  Starting Date ............ 01/01/1988 00:00:00
  Ending Date .............. 01/01/1988 06:00:00
  Antecedent Dry Days ...... 5.0
  Report Time Step ......... 00:01:00
  Routing Time Step ........ 10.00 sec
  Variable Time Step ....... YES
  Maximum Trials ........... 8
  Number of Threads ........ 1
  Head Tolerance ........... 0.001000 m
  
  
  ERROR 331: cannot open hot start interface file D:\2017\hotStart.HSF.

  Analysis begun on:  Tue Jun 23 20:42:27 2026
  Analysis ended on:  Tue Jun 23 20:42:27 2026
  Total elapsed time: < 1 sec