
  EPA STORM WATER MANAGEMENT MODEL - VERSION 5.2 (Build 5.2.4)
  ------------------------------------------------------------

                                                                                                                                                                                                                                                                                                                                                              EXTRANUSER''SMANUALEXAMPLE2 
                                                                                                                                                                                                                                                                                                                                                              BASICPIPESYSTEMWITHTIDEGATEFROMFIGURE3-2 
  
  ****************
  Analysis Options
  ****************
  Flow Units ............... CFS
  Process Models:
    Rainfall/Runoff ........ NO
    RDII ................... NO
    Snowmelt ............... NO
    Groundwater ............ NO
    Flow Routing ........... YES
    Ponding Allowed ........ NO
    Water Quality .......... NO
  Flow Routing Method ...... DYNWAVE
  Surcharge Method ......... EXTRAN
  Starting Date ............ 01/01/1988 00:00:00
  Ending Date .............. 01/01/1988 08:00:00
  Antecedent Dry Days ...... 0.0
  Report Time Step ......... 00:01:00
  Routing Time Step ........ 60.00 sec
  Variable Time Step ....... YES
  Maximum Trials ........... 8
  Number of Threads ........ 1
  Head Tolerance ........... 0.005000 ft
  
  
  ERROR 134: Node 16009 has illegal DUMMY link connections.

  Analysis begun on:  Tue Jun 23 20:42:29 2026
  Analysis ended on:  Tue Jun 23 20:42:29 2026
  Total elapsed time: < 1 sec