
  EPA STORM WATER MANAGEMENT MODEL - VERSION 5.2 (Build 5.2.4)
  ------------------------------------------------------------

  WARNING 03: negative offset ignored for Link OR1@82309b-15009b
  WARNING 03: negative offset ignored for Link WEIR
  
  ****************
  Analysis Options
  ****************
  Flow Units ............... CFS
  Process Models:
    Rainfall/Runoff ........ NO
    RDII ................... NO
    Snowmelt ............... NO
    Groundwater ............ NO
    Flow Routing ........... YES
    Ponding Allowed ........ YES
    Water Quality .......... NO
  Flow Routing Method ...... DYNWAVE
  Surcharge Method ......... EXTRAN
  Starting Date ............ 01/01/1988 00:00:00
  Ending Date .............. 01/01/1988 06:00:00
  Antecedent Dry Days ...... 0.0
  Report Time Step ......... 00:01:00
  Routing Time Step ........ 60.00 sec
  Variable Time Step ....... YES
  Maximum Trials ........... 8
  Number of Threads ........ 1
  Head Tolerance ........... 0.005000 ft
  
  
  **************************        Volume        Volume
  Flow Routing Continuity        acre-feet      10^6 gal
  **************************     ---------     ---------
  Dry Weather Inflow .......        19.834         6.463
  Wet Weather Inflow .......         0.000         0.000
  Groundwater Inflow .......         0.000         0.000
  RDII Inflow ..............         0.000         0.000
  External Inflow ..........       200.817        65.439
  External Outflow .........       165.290        53.862
  Flooding Loss ............        42.255        13.769
  Evaporation Loss .........         0.110         0.036
  Exfiltration Loss ........         0.000         0.000
  Initial Stored Volume ....         1.569         0.511
  Final Stored Volume ......        16.691         5.439
  Continuity Error (%) .....        -0.957
  
  
  *************************
  Highest Continuity Errors
  *************************
  Node 80608 (50.65%)
  Node 10309 (20.80%)
  Node 81309e (13.81%)
  Node 16009 (8.23%)
  Node 80608a (2.90%)
  
  
  ***************************
  Time-Step Critical Elements
  ***************************
  Link 1630c (44.05%)
  Link 1630a (17.91%)
  Link 1630 (17.52%)
  Link 1600 (9.68%)
  Link 1630d (7.07%)
  
  
  ********************************
  Highest Flow Instability Indexes
  ********************************
  Link OR1@82309d-82308d (126)
  Link 8060a (30)
  Link 8060b (28)
  Link 8060e (24)
  Link 8060d (22)
  
  
  *********************************
  Most Frequent Nonconverging Nodes
  *********************************
  Node 10208 (25.36%)
  Node 10208b (25.36%)
  Node 10208c (25.36%)
  Node 10208d (25.36%)
  Node 10208e (25.36%)
  
  
  *************************
  Routing Time Step Summary
  *************************
  Minimum Time Step           :     2.98 sec
  Average Time Step           :    20.91 sec
  Maximum Time Step           :    60.00 sec
  % of Time in Steady State   :     0.00
  Average Iterations per Step :     4.89
  % of Steps Not Converging   :    25.36
  Time Step Frequencies       :
     60.000 - 23.031 sec      :    23.93 %
     23.031 -  8.841 sec      :    73.55 %
      8.841 -  3.393 sec      :     2.33 %
      3.393 -  1.303 sec      :     0.19 %
      1.303 -  0.500 sec      :     0.00 %
  
  
  ******************
  Node Depth Summary
  ******************
  
  ---------------------------------------------------------------------------------
                                 Average  Maximum  Maximum  Time of Max    Reported
                                   Depth    Depth      HGL   Occurrence   Max Depth
  Node                 Type         Feet     Feet     Feet  days hr:min        Feet
  ---------------------------------------------------------------------------------
  10309                JUNCTION     5.74     8.10   109.70     0  03:20        8.10
  10309a               JUNCTION     2.05     2.70   104.30     0  01:51        2.70
  10309b               JUNCTION     1.97     2.76   104.36     0  01:50        2.76
  10309c               JUNCTION     2.03     2.86   104.46     0  03:00        2.86
  10309d               JUNCTION     2.05     2.75   104.35     0  03:06        2.75
  10309e               JUNCTION     1.71     2.41   104.01     0  03:00        2.41
  15009                JUNCTION     1.62     2.45   113.95     0  01:35        2.45
  15009a               JUNCTION     1.61     2.45   113.95     0  01:35        2.45
  15009b               JUNCTION     1.67     2.45   113.95     0  01:35        2.45
  15009c               JUNCTION     0.88     1.33   112.83     0  03:00        1.33
  15009d               JUNCTION     1.62     2.45   113.95     0  01:35        2.45
  15009e               JUNCTION     0.74     1.09   122.09     0  03:06        1.09
  16009                JUNCTION     5.43     7.70   109.70     0  03:21        7.70
  16009a               JUNCTION     2.31     2.94   104.94     0  01:43        2.94
  16009b               JUNCTION     2.10     2.95   104.95     0  01:43        2.95
  16009c               JUNCTION     2.14     3.05   105.05     0  03:00        3.05
  16009d               JUNCTION     2.21     2.94   104.94     0  03:03        2.94
  16009e               JUNCTION     1.83     2.57   104.57     0  03:00        2.57
  16109                JUNCTION     4.79     6.90   109.70     0  03:15        6.90
  16109a               JUNCTION     2.32     2.96   105.76     0  01:51        2.96
  16109b               JUNCTION     1.94     2.96   105.76     0  01:51        2.96
  16109c               JUNCTION     1.48     2.32   105.12     0  03:00        2.32
  16109d               JUNCTION     2.17     2.96   105.76     0  03:02        2.96
  16109e               JUNCTION     1.90     2.87   105.67     0  03:00        2.87
  80408                JUNCTION    13.30    13.40   133.40     0  00:07       13.40
  80408a               JUNCTION     7.79    13.40   138.00     0  00:28       13.40
  80408b               JUNCTION     6.41    13.40   138.00     0  00:39       13.22
  80408c               JUNCTION     1.34     2.35   126.95     0  00:19        2.35
  80408d               JUNCTION     5.13    12.76   137.36     0  02:13       12.76
  80408e               JUNCTION     6.19    13.40   138.00     0  00:44       13.05
  80608                JUNCTION     0.09     0.15   118.45     0  06:00        0.15
  80608a               JUNCTION     9.81    16.70   135.00     0  00:27       16.70
  80608b               JUNCTION     8.63    16.70   135.00     0  00:39       16.70
  80608c               JUNCTION     1.97     3.14   121.44     0  03:00        3.14
  80608d               JUNCTION     7.84    16.70   135.00     0  02:12       16.70
  80608e               JUNCTION     8.34    16.70   135.00     0  00:44       16.70
  81009                JUNCTION     1.64     2.85   131.05     0  00:32        2.85
  81009a               JUNCTION     1.64     2.85   131.05     0  00:32        2.85
  81009b               JUNCTION     1.64     2.85   131.05     0  00:32        2.85
  81009c               JUNCTION     1.65     2.86   131.06     0  00:32        2.86
  81009d               JUNCTION     1.64     2.85   131.05     0  00:32        2.85
  81009e               JUNCTION     3.77     8.80   137.00     0  00:56        8.52
  81309                JUNCTION     1.94     3.09   120.59     0  01:01        3.09
  81309a               JUNCTION     1.94     3.10   120.60     0  01:01        3.10
  81309b               JUNCTION     1.94     3.10   120.60     0  01:01        3.10
  81309c               JUNCTION     2.18     3.40   120.90     0  03:00        3.40
  81309d               JUNCTION     1.94     3.10   120.60     0  01:01        3.10
  81309e               JUNCTION    11.47    12.50   130.00     0  00:40       12.50
  82308d               JUNCTION    11.26    21.47   133.77     0  02:44       21.38
  82309                JUNCTION     2.64     4.64   116.94     0  01:05        4.64
  82309a               JUNCTION    13.09    25.33   137.63     0  00:26       24.92
  82309b               JUNCTION    11.54    22.34   134.64     0  00:39       21.60
  WeirNode             JUNCTION     1.67     2.68   114.98     0  01:31        2.68
  WetWell              JUNCTION    10.72    20.55   132.85     0  00:44       20.31
  10208                OUTFALL      1.33     1.94    91.84     0  03:20        1.94
  10208b               OUTFALL      1.77     2.53    92.43     0  01:50        2.53
  10208c               OUTFALL      1.82     2.63    92.53     0  03:00        2.63
  10208d               OUTFALL      1.85     2.52    92.42     0  03:06        2.52
  10208e               OUTFALL      1.52     2.18    92.08     0  03:00        2.18
  10208a               OUTFALL      4.50     4.50    94.40     0  00:00        4.50
  82309d               STORAGE     11.25    21.31   133.61     0  03:00       21.30
  
  
  *******************
  Node Inflow Summary
  *******************
  
  -------------------------------------------------------------------------------------------------
                                  Maximum  Maximum                  Lateral       Total        Flow
                                  Lateral    Total  Time of Max      Inflow      Inflow     Balance
                                   Inflow   Inflow   Occurrence      Volume      Volume       Error
  Node                 Type           CFS      CFS  days hr:min    10^6 gal    10^6 gal     Percent
  -------------------------------------------------------------------------------------------------
  10309                JUNCTION      0.00    86.03     0  02:27           0        6.33      26.259
  10309a               JUNCTION      0.00   122.40     0  01:41           0        11.1       2.253
  10309b               JUNCTION      0.00   122.40     0  01:41           0        9.96       0.266
  10309c               JUNCTION      0.00   135.00     0  03:00           0        10.8       0.161
  10309d               JUNCTION      0.00   121.90     0  03:03           0        10.5       0.381
  10309e               JUNCTION      0.00    84.60     0  03:00           0        6.77       0.331
  15009                JUNCTION      0.00    50.96     0  01:14           0        4.03       0.148
  15009a               JUNCTION      0.00    51.04     0  01:14           0        4.03       0.445
  15009b               JUNCTION      0.00    52.78     0  03:15           0        4.22       0.514
  15009c               JUNCTION      0.00   112.90     0  03:00           0        9.15      -0.047
  15009d               JUNCTION      0.00    51.01     0  01:14           0        4.03       0.286
  15009e               JUNCTION      0.00    15.01     0  00:39           0        1.18       0.395
  16009                JUNCTION      0.00    90.89     0  02:27           0        6.89       8.967
  16009a               JUNCTION      0.00   122.43     0  01:37           0        11.2       1.061
  16009b               JUNCTION      0.00   122.43     0  01:38           0        9.99       0.316
  16009c               JUNCTION      0.00   135.00     0  03:00           0        10.9      -0.009
  16009d               JUNCTION      0.00   121.92     0  03:02           0        10.6       0.505
  16009e               JUNCTION      0.00    84.60     0  03:00           0         6.8       0.385
  16109                JUNCTION      0.00    44.25     0  01:33           0        3.23       0.000
  16109a               JUNCTION      0.00    71.99     0  01:50           0        7.36       0.000
  16109b               JUNCTION      0.00    72.00     0  01:50           0        5.81       0.000
  16109c               JUNCTION      0.00    25.19     0  00:29           0        1.79       0.000
  16109d               JUNCTION      0.00    71.94     0  03:00           0        6.59       0.000
  16109e               JUNCTION      0.00    69.60     0  01:49           0        5.65       0.000
  80408                JUNCTION     66.00    66.00     0  00:15        7.02        7.02       1.336
  80408a               JUNCTION     65.00    65.00     0  00:15        6.86        6.86       0.264
  80408b               JUNCTION     45.00    45.00     0  00:15        3.63        3.63      -0.276
  80408c               JUNCTION     45.00    45.00     0  00:15        3.63        3.63      -0.172
  80408d               JUNCTION     45.00    45.00     0  00:15        3.63        3.63      -0.169
  80408e               JUNCTION     45.00    45.00     0  00:15        3.63        3.63      -0.210
  80608                JUNCTION      0.00     0.07     0  00:01           0     0.00951     102.651
  80608a               JUNCTION      0.00    66.42     0  00:19           0        5.84       2.984
  80608b               JUNCTION      0.00    46.81     0  00:22           0        3.63       1.569
  80608c               JUNCTION      0.00    46.53     0  00:22           0        3.63       0.322
  80608d               JUNCTION      0.00    46.52     0  00:22           0        3.63       1.894
  80608e               JUNCTION      0.00    46.53     0  00:22           0        3.63       1.660
  81009                JUNCTION     50.00    50.00     0  00:15        4.03        4.03      -0.423
  81009a               JUNCTION     50.00    50.00     0  00:15        4.03        4.03      -0.423
  81009b               JUNCTION     50.00    50.00     0  00:15        4.03        4.03      -0.423
  81009c               JUNCTION     50.00    50.00     0  00:15        4.03        4.03      -0.462
  81009d               JUNCTION     50.00    50.00     0  00:15        4.03        4.03      -0.423
  81009e               JUNCTION     50.00    50.00     0  00:15        4.03        4.03       2.056
  81309                JUNCTION      0.00    53.76     0  00:40           0        4.05       0.445
  81309a               JUNCTION      0.00    53.77     0  00:40           0        4.05       0.443
  81309b               JUNCTION      0.00    53.78     0  00:40           0        4.05       0.418
  81309c               JUNCTION      0.00    53.99     0  00:40           0        4.05       1.049
  81309d               JUNCTION      0.00    53.78     0  00:40           0        4.05       0.445
  81309e               JUNCTION      0.00    53.77     0  00:31           0        3.95      16.029
  82308d               JUNCTION      0.00    15.04     0  04:43           0      0.0188       0.000
  82309                JUNCTION     40.00    40.05     0  03:00        3.22        3.23       0.058
  82309a               JUNCTION     40.00    99.18     0  00:25        3.22        7.54       2.518
  82309b               JUNCTION     40.00    83.72     0  00:32        3.22        5.95      -0.873
  WeirNode             JUNCTION     40.00    85.00     0  03:00        3.22        6.84      -0.280
  WetWell              JUNCTION     40.00    84.62     0  01:48        3.22        6.76      -0.862
  10208                OUTFALL       0.00    62.97     0  03:20           0           5       0.000
  10208b               OUTFALL       0.00   122.29     0  01:50           0        9.93       0.000
  10208c               OUTFALL       0.00   134.95     0  03:00           0        10.8       0.000
  10208d               OUTFALL       0.00   121.82     0  03:06           0        10.5       0.000
  10208e               OUTFALL       0.00    84.56     0  03:00           0        6.75       0.000
  10208a               OUTFALL       0.00   122.26     0  01:51           0        10.9       0.000
  82309d               STORAGE      40.00    85.48     0  00:50        3.22        6.59      -0.384
  
  
  **********************
  Node Surcharge Summary
  **********************
  
  Surcharging occurs when water rises above the top of the highest conduit.
  ---------------------------------------------------------------------
                                               Max. Height   Min. Depth
                                   Hours       Above Crown    Below Rim
  Node                 Type      Surcharged           Feet         Feet
  ---------------------------------------------------------------------
  16109                JUNCTION        1.82          0.901       15.299
  80408                JUNCTION        5.89          9.400        0.000
  80408a               JUNCTION        2.69          9.400        0.000
  80408b               JUNCTION        2.44          9.400        0.000
  80408d               JUNCTION        2.16          8.756        0.644
  80408e               JUNCTION        2.33          9.400        0.000
  80608a               JUNCTION        2.80         12.700        0.000
  80608b               JUNCTION        2.59         12.700        0.000
  80608d               JUNCTION        2.89         12.700        0.000
  80608e               JUNCTION        2.51         12.700        0.000
  81009e               JUNCTION        2.14          4.300        0.000
  81309e               JUNCTION        5.33          8.000        0.000
  82308d               JUNCTION        4.47         19.465       21.235
  82309a               JUNCTION        2.91         19.128       17.372
  82309b               JUNCTION        2.73         16.138       20.362
  WetWell              JUNCTION        2.68         14.345        0.455
  
  
  *********************
  Node Flooding Summary
  *********************
  
  Flooding refers to all water that overflows a node, whether it ponds or not.
  --------------------------------------------------------------------------
                                                             Total   Maximum
                                 Maximum   Time of Max       Flood    Ponded
                        Hours       Rate    Occurrence      Volume     Depth
  Node                 Flooded       CFS   days hr:min    10^6 gal      Feet
  --------------------------------------------------------------------------
  80408                   5.89     65.94      0  00:16       6.925     0.000
  80408a                  2.62     41.93      0  00:28       0.998     0.000
  80408b                  0.02     19.59      0  00:39       0.005     0.000
  80408e                  0.01      1.89      0  00:44       0.000     0.000
  80608a                  2.65     35.10      0  00:27       1.355     0.000
  80608b                  2.39     18.54      0  00:40       0.850     0.000
  80608d                  0.86     12.68      0  03:00       0.207     0.000
  80608e                  2.27      5.14      0  00:44       0.035     0.000
  81009e                  0.01      8.13      0  00:56       0.002     0.000
  81309e                  2.90     49.99      0  00:57       3.400     0.000
  
  
  **********************
  Storage Volume Summary
  **********************
  
  ------------------------------------------------------------------------------------------------
                         Average    Avg   Evap  Exfil     Maximum    Max    Time of Max    Maximum
                          Volume   Pcnt   Pcnt   Pcnt      Volume   Pcnt     Occurrence    Outflow
  Storage Unit          1000 ftł   Full   Loss   Loss    1000 ftł   Full    days hr:min        CFS
  ------------------------------------------------------------------------------------------------
  82309d                   9.002   26.4    0.0    0.0      17.045   49.9       0  03:00      71.95
  
  
  ***********************
  Outfall Loading Summary
  ***********************
  
  -----------------------------------------------------------
                         Flow       Avg       Max       Total
                         Freq      Flow      Flow      Volume
  Outfall Node           Pcnt       CFS       CFS    10^6 gal
  -----------------------------------------------------------
  10208                 93.61     34.50     62.97       5.002
  10208b                94.87     74.64    122.29       9.928
  10208c                99.81     78.10    134.95      10.827
  10208d                94.58     77.41    121.82      10.479
  10208e                95.06     50.68     84.56       6.747
  10208a                94.19     80.27    122.26      10.875
  -----------------------------------------------------------
  System                95.35    395.60    644.30      53.858
  
  
  ********************
  Link Flow Summary
  ********************
  
  -----------------------------------------------------------------------------
                                 Maximum  Time of Max   Maximum    Max/    Max/
                                  |Flow|   Occurrence   |Veloc|    Full    Full
  Link                 Type          CFS  days hr:min    ft/sec    Flow   Depth
  -----------------------------------------------------------------------------
  1030e                CONDUIT     84.56     0  03:00      5.35    0.03    0.26
  1030                 CONDUIT     62.97     0  03:20      0.83    0.26    0.56
  1030a                CONDUIT    122.26     0  01:51      3.14    0.04    0.40
  1030b                CONDUIT    122.29     0  01:50      5.84    0.04    0.29
  1030c                CONDUIT    134.95     0  03:00      5.98    0.04    0.30
  1030d                CONDUIT    121.82     0  03:06      5.83    0.04    0.29
  1570                 CONDUIT     50.44     0  01:35      4.26    0.41    0.72
  1570a                CONDUIT     50.48     0  01:35      4.36    0.41    0.49
  1570b                CONDUIT     50.47     0  01:35      4.43    0.41    0.49
  1570c                CONDUIT    112.90     0  03:00     12.77    0.13    0.40
  1570d                CONDUIT     50.46     0  01:35      4.48    0.41    0.49
  1570e                CONDUIT     15.01     0  03:06      2.39    0.09    0.33
  1600                 CONDUIT     40.87     0  02:27      4.12    0.28    1.00
  1600a                CONDUIT     71.99     0  02:02      6.00    0.49    0.49
  1600b                CONDUIT     71.99     0  01:57      5.42    0.49    0.49
  1600c                CONDUIT     23.41     0  03:10      2.05    0.16    0.45
  1600d                CONDUIT     71.92     0  03:02      5.20    0.49    0.49
  1600e                CONDUIT     69.59     0  03:00      5.63    0.47    0.45
  1602                 CONDUIT     44.25     0  01:33      2.74    1.02    0.89
  1602a                CONDUIT     71.99     0  01:50      4.33    1.66    0.80
  1602b                CONDUIT     72.00     0  01:50      4.33    1.66    0.80
  1602c                CONDUIT     22.10     0  03:00      2.25    0.51    0.50
  1602d                CONDUIT     71.94     0  03:00      4.29    1.66    0.80
  1602e                CONDUIT     69.60     0  01:49      4.22    1.60    0.79
  1630                 CONDUIT     86.03     0  02:27      4.66    0.04    0.88
  1630a                CONDUIT    122.40     0  01:41      8.56    0.05    0.31
  1630b                CONDUIT    122.40     0  01:41      5.79    0.05    0.32
  1630c                CONDUIT    135.00     0  03:00     13.46    0.06    0.33
  1630d                CONDUIT    121.90     0  03:03      5.52    0.05    0.32
  1630e                CONDUIT     84.60     0  03:00      5.24    0.04    0.28
  8040                 CONDUIT      0.07     0  00:01      0.18    1.76    0.52
  8040a                CONDUIT     66.42     0  00:19      7.80    0.90    1.00
  8040b                CONDUIT     46.81     0  00:22      7.34    0.64    1.00
  8040c                CONDUIT     46.53     0  00:22      7.34    0.63    0.68
  8040d                CONDUIT     46.52     0  00:22      7.34    0.63    1.00
  8040e                CONDUIT     46.53     0  00:22      7.34    0.63    1.00
  8060                 CONDUIT      0.05     0  03:21      0.64    0.00    0.31
  8060a                CONDUIT     59.18     0  00:25      5.34    1.11    1.00
  8060b                CONDUIT     43.72     0  00:32      4.84    0.82    1.00
  8060c                CONDUIT     45.00     0  03:00      5.27    0.84    0.64
  8060d                CONDUIT     45.48     0  00:50      4.83    0.85    1.00
  8060e                CONDUIT     45.55     0  03:07      4.82    0.85    1.00
  8100                 CONDUIT     53.76     0  00:40      6.48    0.69    0.64
  8100a                CONDUIT     53.77     0  00:40      6.48    0.69    0.64
  8100b                CONDUIT     53.78     0  00:40      6.48    0.69    0.64
  8100c                CONDUIT     53.99     0  00:40      6.60    0.69    0.67
  8100d                CONDUIT     53.78     0  00:40      6.48    0.69    0.64
  8100e                CONDUIT     53.76     0  00:31      6.48    0.69    1.00
  8130                 CONDUIT     50.96     0  01:14      5.54    0.72    0.61
  8130a                CONDUIT     51.04     0  01:14      5.64    0.72    0.61
  8130b                CONDUIT     51.02     0  01:14      5.57    0.72    0.61
  8130c                CONDUIT     50.00     0  03:00      5.99    0.71    0.53
  8130d                CONDUIT     51.01     0  01:14      5.54    0.72    0.61
  8130e                CONDUIT      0.01     0  00:04      0.38    0.00    0.62
  Pump1                PUMP        15.00     0  00:39              1.00
  OR1@82309d-82308d    ORIFICE     15.04     0  04:43                      1.00
  OR1@82309b-15009b    ORIFICE     11.60     0  03:15                      1.00
  WEIR                 WEIR        62.93     0  01:18                      0.33
  
  
  ***************************
  Flow Classification Summary
  ***************************
  
  -------------------------------------------------------------------------------------
                      Adjusted    ---------- Fraction of Time in Flow Class ---------- 
                       /Actual         Up    Down  Sub   Sup   Up    Down  Norm  Inlet 
  Conduit               Length    Dry  Dry   Dry   Crit  Crit  Crit  Crit  Ltd   Ctrl  
  -------------------------------------------------------------------------------------
  1030e                   1.00   0.02  0.00  0.00  0.98  0.00  0.00  0.00  0.00  0.00
  1030                    1.00   0.03  0.00  0.00  0.97  0.00  0.00  0.00  0.00  0.00
  1030a                   1.00   0.00  0.06  0.00  0.94  0.00  0.00  0.00  0.94  0.00
  1030b                   1.00   0.03  0.00  0.00  0.97  0.00  0.00  0.00  0.00  0.00
  1030c                   1.00   0.00  0.00  0.00  1.00  0.00  0.00  0.00  0.00  0.00
  1030d                   1.00   0.04  0.00  0.00  0.96  0.00  0.00  0.00  0.00  0.00
  1570                    1.00   0.00  0.00  0.00  1.00  0.00  0.00  0.00  0.91  0.00
  1570a                   1.00   0.00  0.00  0.00  1.00  0.00  0.00  0.00  0.96  0.00
  1570b                   1.00   0.00  0.00  0.00  1.00  0.00  0.00  0.00  0.94  0.00
  1570c                   5.02   0.00  0.00  0.00  0.39  0.61  0.00  0.00  1.00  0.00
  1570d                   1.00   0.00  0.00  0.00  1.00  0.00  0.00  0.00  0.92  0.00
  1570e                   1.00   0.00  0.00  0.00  0.96  0.04  0.00  0.00  0.93  0.00
  1600                    1.00   0.00  0.00  0.00  0.98  0.02  0.00  0.00  0.02  0.00
  1600a                   1.00   0.00  0.00  0.00  0.97  0.03  0.00  0.00  0.35  0.00
  1600b                   1.00   0.00  0.00  0.00  0.97  0.03  0.00  0.00  0.29  0.00
  1600c                   1.00   0.00  0.00  0.00  1.00  0.00  0.00  0.00  0.38  0.00
  1600d                   1.00   0.00  0.00  0.00  0.97  0.03  0.00  0.00  0.31  0.00
  1600e                   1.00   0.00  0.00  0.00  0.98  0.02  0.00  0.00  0.43  0.00
  1602                    1.00   0.00  0.00  0.00  1.00  0.00  0.00  0.00  0.60  0.00
  1602a                   1.00   0.00  0.00  0.00  1.00  0.00  0.00  0.00  0.00  0.00
  1602b                   1.00   0.00  0.00  0.00  1.00  0.00  0.00  0.00  0.33  0.00
  1602c                   1.00   0.00  0.00  0.00  1.00  0.00  0.00  0.00  0.47  0.00
  1602d                   1.00   0.00  0.00  0.00  1.00  0.00  0.00  0.00  0.00  0.00
  1602e                   1.00   0.00  0.00  0.00  1.00  0.00  0.00  0.00  0.20  0.00
  1630                    1.00   0.00  0.00  0.00  0.97  0.03  0.00  0.00  0.00  0.00
  1630a                   1.00   0.00  0.00  0.00  0.94  0.06  0.00  0.00  0.00  0.00
  1630b                   1.00   0.00  0.00  0.00  0.95  0.05  0.00  0.00  0.25  0.00
  1630c                   1.00   0.00  0.00  0.00  0.97  0.03  0.00  0.00  0.31  0.00
  1630d                   1.00   0.00  0.00  0.00  0.95  0.04  0.00  0.00  0.15  0.00
  1630e                   1.00   0.00  0.00  0.00  0.96  0.04  0.00  0.00  0.29  0.00
  8040                    1.00   0.00  0.00  0.00  1.00  0.00  0.00  0.00  0.00  0.00
  8040a                   1.00   0.00  0.00  0.00  0.97  0.03  0.00  0.00  0.48  0.00
  8040b                   1.00   0.00  0.00  0.00  0.96  0.04  0.00  0.00  0.51  0.00
  8040c                   1.00   0.00  0.00  0.00  0.96  0.04  0.00  0.00  0.94  0.00
  8040d                   1.00   0.00  0.00  0.00  0.96  0.04  0.00  0.00  0.49  0.00
  8040e                   1.00   0.00  0.00  0.00  0.96  0.04  0.00  0.00  0.52  0.00
  8060                    1.00   0.00  0.00  0.00  0.52  0.00  0.00  0.48  0.51  0.00
  8060a                   1.00   0.00  0.00  0.00  0.61  0.00  0.00  0.39  0.08  0.00
  8060b                   1.00   0.00  0.00  0.00  0.56  0.00  0.00  0.44  0.08  0.00
  8060c                   1.00   0.00  0.00  0.00  0.00  0.00  0.00  1.00  0.00  0.00
  8060d                   1.00   0.00  0.00  0.00  0.70  0.00  0.00  0.30  0.12  0.00
  8060e                   1.00   0.00  0.00  0.00  0.57  0.00  0.00  0.43  0.10  0.00
  8100                    1.00   0.00  0.00  0.00  0.95  0.05  0.00  0.00  0.89  0.00
  8100a                   1.00   0.00  0.00  0.00  0.95  0.05  0.00  0.00  0.89  0.00
  8100b                   1.00   0.00  0.00  0.00  0.95  0.05  0.00  0.00  0.89  0.00
  8100c                   1.00   0.00  0.00  0.00  0.95  0.05  0.00  0.00  0.89  0.00
  8100d                   1.00   0.00  0.00  0.00  0.95  0.05  0.00  0.00  0.89  0.00
  8100e                   1.00   0.00  0.00  0.00  0.95  0.05  0.00  0.00  0.03  0.00
  8130                    1.00   0.00  0.00  0.00  0.97  0.03  0.00  0.00  0.45  0.00
  8130a                   1.00   0.00  0.00  0.00  0.97  0.03  0.00  0.00  0.45  0.00
  8130b                   1.00   0.00  0.00  0.00  0.97  0.03  0.00  0.00  0.45  0.00
  8130c                   1.00   0.00  0.00  0.00  0.96  0.04  0.00  0.00  0.05  0.00
  8130d                   1.00   0.00  0.00  0.00  0.97  0.03  0.00  0.00  0.45  0.00
  8130e                   1.00   0.00  0.00  0.00  1.00  0.00  0.00  0.00  0.07  0.00
  
  
  *************************
  Conduit Surcharge Summary
  *************************
  
  ----------------------------------------------------------------------------
                                                           Hours        Hours 
                         --------- Hours Full --------   Above Full   Capacity
  Conduit                Both Ends  Upstream  Dnstream   Normal Flow   Limited
  ----------------------------------------------------------------------------
  1570                        0.01      0.01      3.64      0.01         0.01
  1600                        1.82      1.82      2.92      0.01         0.01
  1602                        0.01      0.01      3.21      0.38         0.01
  1602a                       0.01      3.19      0.01      3.12         0.01
  1602b                       0.01      2.93      0.01      2.85         0.01
  1602d                       0.01      3.67      0.01      3.52         0.01
  1602e                       0.01      2.92      0.01      2.81         0.01
  8040                        0.01      5.89      0.01      5.91         0.01
  8040a                       2.69      2.69      2.80      0.01         0.01
  8040b                       2.44      2.44      2.59      0.01         0.01
  8040d                       2.16      2.16      2.89      0.01         0.01
  8040e                       2.33      2.33      2.51      0.01         0.01
  8060a                       2.79      2.79      2.91      0.07         0.01
  8060b                       2.59      2.59      2.73      0.01         0.01
  8060d                       2.89      2.89      3.47      0.01         0.01
  8060e                       2.51      2.51      2.68      0.01         0.01
  8100e                       2.14      2.14      5.33      0.01         0.01
  8130e                       0.01      0.01      5.33      0.01         0.01
  
  
  ***************
  Pumping Summary
  ***************
  
  ---------------------------------------------------------------------------------------------------------
                                                  Min       Avg       Max     Total     Power    % Time Off
                        Percent   Number of      Flow      Flow      Flow    Volume     Usage    Pump Curve
  Pump                 Utilized   Start-Ups       CFS       CFS       CFS  10^6 gal     Kw-hr    Low   High
  ---------------------------------------------------------------------------------------------------------
  Pump1                  100.00           1      0.00      8.43     15.00     1.176     33.41    0.0   42.5
  

  Analysis begun on:  Tue Jun 23 20:43:48 2026
  Analysis ended on:  Tue Jun 23 20:43:48 2026
  Total elapsed time: < 1 sec