
  EPA STORM WATER MANAGEMENT MODEL - VERSION 5.2 (Build 5.2.4)
  ------------------------------------------------------------

  
  *************
  Element Count
  *************
  Number of rain gages ...... 0
  Number of subcatchments ... 0
  Number of nodes ........... 38
  Number of links ........... 34
  Number of pollutants ...... 0
  Number of land uses ....... 0
  
  
  ************
  Node Summary
  ************
                                           Invert      Max.    Ponded    External
  Name                 Type                 Elev.     Depth      Area    Inflow  
  -------------------------------------------------------------------------------
  3                    JUNCTION              0.17      1.00       0.0
  4                    JUNCTION              0.00      1.00       0.0
  A3                   JUNCTION              0.17      1.00       0.0
  A4                   JUNCTION              0.00      1.00       0.0
  A5                   JUNCTION             -0.01      1.00       0.0
  B10                  JUNCTION             -0.02      1.00       0.0
  B11                  JUNCTION             -0.03      1.00       0.0
  B3                   JUNCTION              0.17      1.00       0.0
  B4                   JUNCTION              0.00      1.00       0.0
  B5                   JUNCTION             -0.00      1.00       0.0
  B6                   JUNCTION             -0.01      1.00       0.0
  B7                   JUNCTION             -0.01      1.00       0.0
  B8                   JUNCTION             -0.02      1.00       0.0
  B9                   JUNCTION             -0.02      1.00       0.0
  C10                  JUNCTION             -0.01      1.00       0.0
  C11                  JUNCTION             -0.01      1.00       0.0
  C12                  JUNCTION             -0.02      1.00       0.0
  C13                  JUNCTION             -0.02      1.00       0.0
  C14                  JUNCTION             -0.02      1.00       0.0
  C15                  JUNCTION             -0.02      1.00       0.0
  C16                  JUNCTION             -0.02      1.00       0.0
  C17                  JUNCTION             -0.03      1.00       0.0
  C18                  JUNCTION             -0.03      1.00       0.0
  C3                   JUNCTION              0.17      1.00       0.0
  C4                   JUNCTION              0.00      1.00       0.0
  C5                   JUNCTION             -0.00      1.00       0.0
  C6                   JUNCTION             -0.00      1.00       0.0
  C7                   JUNCTION             -0.01      1.00       0.0
  C8                   JUNCTION             -0.01      1.00       0.0
  C9                   JUNCTION             -0.01      1.00       0.0
  A2                   OUTFALL               0.34      1.00       0.0
  B2                   OUTFALL               0.34      1.00       0.0
  C2                   OUTFALL               0.34      1.00       0.0
  OUTFALL1             OUTFALL              -0.03      1.00       0.0
  OUTFALLA             OUTFALL              -0.03      1.00       0.0
  OUTFALLB             OUTFALL              -0.03      1.00       0.0
  OUTFALLC             OUTFALL              -0.03      1.00       0.0
  2                    STORAGE               0.34      1.00       0.0
  
  
  ************
  Link Summary
  ************
  Name             From Node        To Node          Type            Length    %Slope Roughness
  ---------------------------------------------------------------------------------------------
  2                2                3                CONDUIT            1.0   17.0422    0.0110
  3                3                4                CONDUIT            1.0   17.0422    0.0110
  5                4                OUTFALL1         CONDUIT           15.0    0.2000    0.0110
  A2               A2               A3               CONDUIT            1.0   17.0422    0.0110
  A3               A3               A4               CONDUIT            1.0   17.0422    0.0110
  A4               A4               A5               CONDUIT            7.5    0.2000    0.0110
  A5               A5               OUTFALLA         CONDUIT            7.5    0.2000    0.0110
  B10              B9               B10              CONDUIT            2.0    0.2000    0.0110
  B11              B10              B11              CONDUIT            2.0    0.2000    0.0110
  B12              B11              OUTFALLB         CONDUIT            1.0    0.2000    0.0110
  B2               B2               B3               CONDUIT            1.0   17.0422    0.0110
  B3               B3               B4               CONDUIT            1.0   17.0422    0.0110
  B5               B4               B5               CONDUIT            2.0    0.2000    0.0110
  B6               B5               B6               CONDUIT            2.0    0.2000    0.0110
  B7               B6               B7               CONDUIT            2.0    0.2000    0.0110
  B8               B7               B8               CONDUIT            2.0    0.2000    0.0110
  B9               B8               B9               CONDUIT            2.0    0.2000    0.0110
  C10              C9               C10              CONDUIT            1.0    0.2000    0.0110
  C11              C10              C11              CONDUIT            1.0    0.2000    0.0110
  C12              C11              C12              CONDUIT            1.0    0.2000    0.0110
  C13              C12              C13              CONDUIT            1.0    0.2000    0.0110
  C14              C13              C14              CONDUIT            1.0    0.2000    0.0110
  C15              C14              C15              CONDUIT            1.0    0.2000    0.0110
  C16              C15              C16              CONDUIT            1.0    0.2000    0.0110
  C17              C16              C17              CONDUIT            1.0    0.2000    0.0110
  C18              C17              C18              CONDUIT            1.0    0.2000    0.0110
  C19              C18              OUTFALLC         CONDUIT            1.0    0.2000    0.0110
  C2               C2               C3               CONDUIT            1.0   17.0422    0.0110
  C3               C3               C4               CONDUIT            1.0   17.0422    0.0110
  C5               C4               C5               CONDUIT            1.0    0.2000    0.0110
  C6               C5               C6               CONDUIT            1.0    0.2000    0.0110
  C7               C6               C7               CONDUIT            1.0    0.2000    0.0110
  C8               C7               C8               CONDUIT            1.0    0.2000    0.0110
  C9               C8               C9               CONDUIT            1.0    0.2000    0.0110
  
  
  *********************
  Cross Section Summary
  *********************
                                        Full     Full     Hyd.     Max.   No. of     Full
  Conduit          Shape               Depth     Area     Rad.    Width  Barrels     Flow
  ---------------------------------------------------------------------------------------
  2                TRAPEZOIDAL          1.00     2.40     0.46     4.80        1 53795.56
  3                TRAPEZOIDAL          1.00     1.80     0.44     3.60        1 38908.29
  5                TRAPEZOIDAL          1.00     1.19     0.38     2.38        1  2550.76
  A2               TRAPEZOIDAL          1.00     2.40     0.46     4.80        1 53795.56
  A3               TRAPEZOIDAL          1.00     1.80     0.44     3.60        1 38908.29
  A4               TRAPEZOIDAL          1.00     1.19     0.38     2.38        1  2550.76
  A5               TRAPEZOIDAL          1.00     1.19     0.38     2.38        1  2550.76
  B10              TRAPEZOIDAL          1.00     1.19     0.38     2.38        1  2550.76
  B11              TRAPEZOIDAL          1.00     1.19     0.38     2.38        1  2550.76
  B12              TRAPEZOIDAL          1.00     1.19     0.38     2.38        1  2550.76
  B2               TRAPEZOIDAL          1.00     2.40     0.46     4.80        1 53795.56
  B3               TRAPEZOIDAL          1.00     1.80     0.44     3.60        1 38908.29
  B5               TRAPEZOIDAL          1.00     1.19     0.38     2.38        1  2550.76
  B6               TRAPEZOIDAL          1.00     1.19     0.38     2.38        1  2550.76
  B7               TRAPEZOIDAL          1.00     1.19     0.38     2.38        1  2550.76
  B8               TRAPEZOIDAL          1.00     1.19     0.38     2.38        1  2550.76
  B9               TRAPEZOIDAL          1.00     1.19     0.38     2.38        1  2550.76
  C10              TRAPEZOIDAL          1.00     1.19     0.38     2.38        1  2550.76
  C11              TRAPEZOIDAL          1.00     1.19     0.38     2.38        1  2550.76
  C12              TRAPEZOIDAL          1.00     1.19     0.38     2.38        1  2550.76
  C13              TRAPEZOIDAL          1.00     1.19     0.38     2.38        1  2550.76
  C14              TRAPEZOIDAL          1.00     1.19     0.38     2.38        1  2550.76
  C15              TRAPEZOIDAL          1.00     1.19     0.38     2.38        1  2550.76
  C16              TRAPEZOIDAL          1.00     1.19     0.38     2.38        1  2550.76
  C17              TRAPEZOIDAL          1.00     1.19     0.38     2.38        1  2550.76
  C18              TRAPEZOIDAL          1.00     1.19     0.38     2.38        1  2550.76
  C19              TRAPEZOIDAL          1.00     1.19     0.38     2.38        1  2550.76
  C2               TRAPEZOIDAL          1.00     2.40     0.46     4.80        1 53795.56
  C3               TRAPEZOIDAL          1.00     1.80     0.44     3.60        1 38908.29
  C5               TRAPEZOIDAL          1.00     1.19     0.38     2.38        1  2550.76
  C6               TRAPEZOIDAL          1.00     1.19     0.38     2.38        1  2550.76
  C7               TRAPEZOIDAL          1.00     1.19     0.38     2.38        1  2550.76
  C8               TRAPEZOIDAL          1.00     1.19     0.38     2.38        1  2550.76
  C9               TRAPEZOIDAL          1.00     1.19     0.38     2.38        1  2550.76
  
  
  ****************
  Analysis Options
  ****************
  Flow Units ............... LPS
  Process Models:
    Rainfall/Runoff ........ NO
    RDII ................... NO
    Snowmelt ............... NO
    Groundwater ............ NO
    Flow Routing ........... YES
    Ponding Allowed ........ NO
    Water Quality .......... NO
  Flow Routing Method ...... DYNWAVE
  Surcharge Method ......... EXTRAN
  Starting Date ............ 01/01/2002 00:00:00
  Ending Date .............. 01/02/2002 01:00:00
  Antecedent Dry Days ...... 5.0
  Report Time Step ......... 00:01:00
  Routing Time Step ........ 0.10 sec
  Variable Time Step ....... YES
  Maximum Trials ........... 20
  Number of Threads ........ 1
  Head Tolerance ........... 0.000010 m
  
  
  ERROR 331: cannot open hot start interface file D:\2016PC\Spring2014\PUMPVenant.HSF.

  Analysis begun on:  Tue Jun 23 20:44:19 2026
  Analysis ended on:  Tue Jun 23 20:44:19 2026
  Total elapsed time: < 1 sec