
  EPA STORM WATER MANAGEMENT MODEL - VERSION 5.2 (Build 5.2.4)
  ------------------------------------------------------------

  Scenario Run :  BASE 
  WARNING 04: minimum elevation drop used for Conduit CDT-310
  WARNING 04: minimum elevation drop used for Conduit CDT-310-1
  WARNING 04: minimum elevation drop used for Conduit CDT-31A1D
  WARNING 04: minimum elevation drop used for Conduit CDT-31A2D
  WARNING 04: minimum elevation drop used for Conduit CDT-31A3D
  WARNING 04: minimum elevation drop used for Conduit CDT-31A4D
  WARNING 04: minimum elevation drop used for Conduit CDT-31A5D
  WARNING 04: minimum elevation drop used for Conduit CDT-31F2
  WARNING 04: minimum elevation drop used for Conduit CDT-31F21D
  WARNING 04: minimum elevation drop used for Conduit CDT-31F22
  WARNING 04: minimum elevation drop used for Conduit CDT-331AD
  WARNING 04: minimum elevation drop used for Conduit CDT-35
  WARNING 04: minimum elevation drop used for Conduit SGP37002000
  WARNING 04: minimum elevation drop used for Conduit SPI3010031A
  WARNING 04: minimum elevation drop used for Conduit SPI30100600
  WARNING 04: minimum elevation drop used for Conduit SPI30101300
  WARNING 04: minimum elevation drop used for Conduit SPI30101500
  WARNING 04: minimum elevation drop used for Conduit SPI30101600
  WARNING 04: minimum elevation drop used for Conduit SPI30101700
  WARNING 04: minimum elevation drop used for Conduit SPI30101800
  WARNING 04: minimum elevation drop used for Conduit SPI30101900
  WARNING 04: minimum elevation drop used for Conduit SPI30102000
  WARNING 04: minimum elevation drop used for Conduit SPI30102600
  WARNING 04: minimum elevation drop used for Conduit SPI30102700
  WARNING 04: minimum elevation drop used for Conduit SPI30102800
  WARNING 04: minimum elevation drop used for Conduit SPI30102900
  WARNING 04: minimum elevation drop used for Conduit SPI301031A1
  WARNING 04: minimum elevation drop used for Conduit SPI301031A4
  WARNING 04: minimum elevation drop used for Conduit SPI30109800
  WARNING 04: minimum elevation drop used for Conduit SPI30131F22
  WARNING 04: minimum elevation drop used for Conduit SPI30191200
  WARNING 04: minimum elevation drop used for Conduit SPI30191300
  WARNING 04: minimum elevation drop used for Conduit SPI30191600
  WARNING 04: minimum elevation drop used for Conduit SPI30192100
  WARNING 04: minimum elevation drop used for Conduit SPI30192200
  WARNING 04: minimum elevation drop used for Conduit SPI30192300
  WARNING 04: minimum elevation drop used for Conduit SPI30192500
  WARNING 04: minimum elevation drop used for Conduit SPI30192600
  WARNING 04: minimum elevation drop used for Conduit SPI30192800
  WARNING 04: minimum elevation drop used for Conduit SPI30193100
  WARNING 04: minimum elevation drop used for Conduit SPI30193200
  WARNING 04: minimum elevation drop used for Conduit SPI30193300
  WARNING 04: minimum elevation drop used for Conduit SPI301E5001
  WARNING 04: minimum elevation drop used for Conduit SPI301E5004
  WARNING 04: minimum elevation drop used for Conduit SPI301E5005
  WARNING 04: minimum elevation drop used for Conduit SPI301E5006
  WARNING 04: minimum elevation drop used for Conduit SPI301E5007
  WARNING 04: minimum elevation drop used for Conduit SPI301E5008
  WARNING 04: minimum elevation drop used for Conduit SPI301E5009
  WARNING 04: minimum elevation drop used for Conduit SPI301E5010
  WARNING 04: minimum elevation drop used for Conduit SPI301E5011
  WARNING 04: minimum elevation drop used for Conduit SPI301E5012
  WARNING 04: minimum elevation drop used for Conduit SPI301E5013
  WARNING 04: minimum elevation drop used for Conduit SPI301E5014
  WARNING 04: minimum elevation drop used for Conduit SPI301E5015
  WARNING 04: minimum elevation drop used for Conduit SPI301E5016
  WARNING 04: minimum elevation drop used for Conduit SPI301E5017
  WARNING 04: minimum elevation drop used for Conduit SPI301E5018
  WARNING 04: minimum elevation drop used for Conduit SPI301E5019
  WARNING 04: minimum elevation drop used for Conduit SPI301E5021
  
  ****************
  Analysis Options
  ****************
  Flow Units ............... GPM
  Process Models:
    Rainfall/Runoff ........ NO
    RDII ................... NO
    Snowmelt ............... NO
    Groundwater ............ NO
    Flow Routing ........... YES
    Ponding Allowed ........ NO
    Water Quality .......... NO
  Flow Routing Method ...... DYNWAVE
  Surcharge Method ......... EXTRAN
  Starting Date ............ 01/01/2002 00:00:00
  Ending Date .............. 01/02/2002 06:00:00
  Antecedent Dry Days ...... 5.0
  Report Time Step ......... 00:05:00
  Routing Time Step ........ 1.00 sec
  Variable Time Step ....... YES
  Maximum Trials ........... 8
  Number of Threads ........ 1
  Head Tolerance ........... 0.000100 ft
  
  
  **************************        Volume        Volume
  Flow Routing Continuity        acre-feet      10^6 gal
  **************************     ---------     ---------
  Dry Weather Inflow .......         1.003         0.327
  Wet Weather Inflow .......         0.000         0.000
  Groundwater Inflow .......         0.000         0.000
  RDII Inflow ..............         0.000         0.000
  External Inflow ..........         0.313         0.102
  External Outflow .........         1.432         0.467
  Flooding Loss ............         0.000         0.000
  Evaporation Loss .........         0.000         0.000
  Exfiltration Loss ........         0.000         0.000
  Initial Stored Volume ....         0.637         0.208
  Final Stored Volume ......         0.501         0.163
  Continuity Error (%) .....         1.061
  
  
  *************************
  Highest Continuity Errors
  *************************
  Node SMH30190700 (-24.41%)
  Node SMH30190600 (-19.54%)
  Node SMH30118370 (-18.84%)
  Node SMH30118160 (-17.60%)
  Node EAC_SMH30100006 (-14.66%)
  
  
  ***************************
  Time-Step Critical Elements
  ***************************
  Link SPI30104700 (1.22%)
  
  
  ********************************
  Highest Flow Instability Indexes
  ********************************
  Link CDT-31A4D (123)
  Link CDT-31A2D (48)
  Link CDT-31A3D (43)
  Link SPI301031A3 (31)
  Link SPI301031A2 (27)
  
  
  *********************************
  Most Frequent Nonconverging Nodes
  *********************************
  Node OFALL-310 (100.00%)
  Node JCT-31A4 (99.41%)
  Node JCT-31A1V (99.41%)
  Node JCT-31A1 (99.39%)
  Node SFT30193200 (99.39%)
  
  
  *************************
  Routing Time Step Summary
  *************************
  Minimum Time Step           :     0.15 sec
  Average Time Step           :     0.99 sec
  Maximum Time Step           :     1.00 sec
  % of Time in Steady State   :     0.00
  Average Iterations per Step :     8.00
  % of Steps Not Converging   :   100.00
  Time Step Frequencies       :
      1.000 -  0.251 sec      :    99.99 %
      0.251 -  0.063 sec      :     0.01 %
      0.063 -  0.016 sec      :     0.00 %
      0.016 -  0.004 sec      :     0.00 %
      0.004 -  0.001 sec      :     0.00 %
  
  
  ******************
  Node Depth Summary
  ******************
  
  ---------------------------------------------------------------------------------
                                 Average  Maximum  Maximum  Time of Max    Reported
                                   Depth    Depth      HGL   Occurrence   Max Depth
  Node                 Type         Feet     Feet     Feet  days hr:min        Feet
  ---------------------------------------------------------------------------------
  EAC_SMH30100001      JUNCTION     0.17     2.84    -5.49     0  00:05        2.82
  EAC_SMH30100002      JUNCTION     0.03     3.55    -2.56     0  00:00        0.66
  EAC_SMH30100003      JUNCTION     0.03     4.83    -0.47     0  00:00        0.40
  EAC_SMH30100004      JUNCTION     0.03     6.89     2.58     0  00:00        0.36
  EAC_SMH30100005      JUNCTION     0.03     7.24     3.27     0  00:00        0.31
  EAC_SMH30100006      JUNCTION     0.03     7.52     5.18     0  00:00        0.26
  EAC_SMH30100011      JUNCTION     0.15     4.00    -3.53     0  00:00        2.31
  EAC_SMH30100012      JUNCTION     0.15     5.67    -1.00     0  00:00        1.84
  EAC_SMH30100013      JUNCTION     0.14     7.61     2.00     0  00:00        1.18
  EAC_SMH30100014      JUNCTION     0.13     7.71     2.35     0  00:00        0.99
  EAC_SMH30100015      JUNCTION     0.14     7.65     3.07     0  00:00        0.54
  EAC_SMH30100016      JUNCTION     0.14     7.35     3.63     0  00:00        0.42
  EAC_SMH30100019      JUNCTION     0.14     3.22     0.52     0  00:00        0.40
  JCT-10               JUNCTION    10.34    70.55    70.55     0  00:00       40.77
  JCT-310              JUNCTION     8.02    10.45    10.45     0  00:03        8.64
  JCT-310-1            JUNCTION     8.05    13.55    13.55     0  00:03        9.46
  JCT-310-2            JUNCTION     8.35    16.46    16.46     0  00:03       15.33
  JCT-312              JUNCTION     0.62   122.15   122.90     0  19:16       34.30
  JCT-31A              JUNCTION    17.75   126.50   126.50     0  20:59      118.62
  JCT-31A1             JUNCTION    12.79   146.96   146.96     0  00:00       80.89
  JCT-31A1V            JUNCTION    12.33    81.96    81.96     0  00:00       75.51
  JCT-31A2             JUNCTION     5.72    46.79    46.79     0  19:43       44.84
  JCT-31A2V            JUNCTION     5.46    51.03    51.03     0  19:43       46.16
  JCT-31A3             JUNCTION     5.56    54.12    54.12     0  00:00       31.68
  JCT-31A3V            JUNCTION     5.42    54.80    54.80     0  17:21       29.91
  JCT-31A4             JUNCTION     1.39    46.53    46.53     0  14:38       41.36
  JCT-31A4V            JUNCTION     1.38    48.67    48.67     0  19:16       38.69
  JCT-31A5             JUNCTION     0.13    51.97    51.97     0  00:00       25.25
  JCT-31A5V            JUNCTION     0.09    58.75    58.75     0  17:11        0.31
  JCT-31AV             JUNCTION    16.83   121.79   121.79     0  20:59      111.47
  JCT-31F1             JUNCTION     0.14    61.79    61.79     0  00:00        0.32
  JCT-31F2             JUNCTION     2.58    39.27    39.27     0  00:00       35.39
  JCT-31F21            JUNCTION     0.41    46.17    46.17     0  00:00       23.92
  JCT-31F21V           JUNCTION     0.22    46.19    46.19     0  00:00        2.34
  JCT-31F22            JUNCTION     0.63   104.12   104.12     0  00:00       12.07
  JCT-31F22V           JUNCTION     0.49    65.97    65.97     0  00:00        4.48
  JCT-31F2V            JUNCTION     1.30    38.57    38.57     0  00:00       32.34
  SFT30100200          JUNCTION     0.23     4.47     3.40     0  00:00        0.43
  SFT30100300          JUNCTION     0.21    23.86    23.27     0  00:00        0.49
  SFT30100400          JUNCTION     0.21    24.42    23.85     0  00:00        0.49
  SFT30100600          JUNCTION     0.21    46.72    46.72     0  00:00        0.54
  SFT30100700          JUNCTION     0.23    46.27    46.25     0  00:00        0.55
  SFT30100800          JUNCTION     0.21    46.68    46.68     0  00:00        0.54
  SFT30101000          JUNCTION     1.20    38.42    38.40     0  00:00       32.09
  SFT30101300          JUNCTION     0.41    60.54    60.54     0  00:00        0.66
  SFT30101500          JUNCTION     0.36    52.18    52.18     0  00:00        0.64
  SFT30101600          JUNCTION     0.41    60.20    60.20     0  00:00        0.65
  SFT30101700          JUNCTION     0.46    65.54    65.54     0  00:00        2.41
  SFT30101800          JUNCTION     0.47    65.46    65.46     0  00:00        3.39
  SFT30101900          JUNCTION     0.47    65.38    65.38     0  00:00        3.24
  SFT30102000          JUNCTION     0.49    65.80    65.80     0  00:00        3.68
  SFT30102600          JUNCTION    16.48   119.31   119.31     0  20:59      108.48
  SFT30102700          JUNCTION    16.58   120.93   120.93     0  20:59      109.51
  SFT30102800          JUNCTION    16.58   120.79   120.79     0  20:59      109.51
  SFT30102900          JUNCTION    16.62   121.03   121.03     0  20:59      109.86
  SFT30103100          JUNCTION     5.26    50.96    51.01     0  19:43       45.65
  SFT30104500          JUNCTION     0.57    27.45    26.25     0  18:04       11.60
  SFT30104600          JUNCTION     0.54    29.55    28.27     0  20:37       10.31
  SFT30104700          JUNCTION     0.44    14.76    13.25     0  18:32        6.79
  SFT30107200          JUNCTION     0.43    14.21    12.68     0  18:32        6.53
  SFT30109800          JUNCTION     8.98    28.40    28.40     0  00:00       25.72
  SFT30122000          JUNCTION     1.38    48.95    48.95     0  19:16       38.43
  SFT30123000          JUNCTION     5.13    55.02    55.19     0  17:21       28.29
  SFT30123100          JUNCTION     4.01    43.11    43.95     0  17:21       21.97
  SFT30123200          JUNCTION     3.31    32.96    34.39     0  17:21       20.12
  SFT30191000          JUNCTION     0.01     0.50     3.86     0  00:00        0.09
  SFT30191200          JUNCTION    12.10    79.60    79.60     0  00:00       72.77
  SFT30191300          JUNCTION    11.94    77.89    77.89     0  00:00       70.88
  SFT30191600          JUNCTION    12.17    80.36    80.36     0  00:00       73.63
  SFT30191800          JUNCTION     1.84    33.33    36.03     0  17:21       16.20
  SFT30192000          JUNCTION     1.72    32.50    35.31     0  17:21       15.88
  SFT30192100          JUNCTION    11.92    77.65    77.65     0  00:00       70.64
  SFT30192200          JUNCTION    10.41    60.16    60.16     0  14:57       52.69
  SFT30192300          JUNCTION    10.41    60.09    60.09     0  14:57       52.62
  SFT30192500          JUNCTION    13.79    86.70    86.70     0  00:00       82.84
  SFT30192600          JUNCTION    15.24   103.04   103.04     0  20:59       96.50
  SFT30192800          JUNCTION    10.41    60.11    60.11     0  14:57       52.63
  SFT30193100          JUNCTION    11.94    77.92    77.92     0  00:00       70.90
  SFT30193200          JUNCTION    11.94    77.91    77.91     0  00:00       70.89
  SFT30193300          JUNCTION    11.94    77.90    77.90     0  00:00       70.89
  SFT301E5001          JUNCTION    10.09    54.33    54.33     0  00:00       47.86
  SFT301E5002          JUNCTION     0.06     9.94     8.77     0  00:00        0.36
  SFT301E5003          JUNCTION    10.18    25.75    23.99     0  19:34       17.84
  SFT301E5004          JUNCTION     8.97    28.27    28.27     0  00:00       25.61
  SFT301E5005          JUNCTION     8.87    29.25    29.25     0  00:03       23.59
  SFT301E5006          JUNCTION     9.11    31.16    31.16     0  00:00       28.33
  SFT301E5007          JUNCTION     9.21    33.29    33.29     0  00:00       30.34
  SFT301E5008          JUNCTION     9.21    33.38    33.38     0  00:00       30.44
  SFT301E5009          JUNCTION     9.39    42.80    42.80     0  00:03       34.10
  SFT301E5010          JUNCTION     9.51    89.69    89.69     0  00:03       36.58
  SFT301E5011          JUNCTION     9.72    46.03    46.03     0  00:00       40.79
  SFT301E5012          JUNCTION     9.76    47.12    47.12     0  00:00       41.64
  SFT301E5013          JUNCTION     9.77    47.41    47.41     0  00:00       41.88
  SFT301E5014          JUNCTION     9.81    48.34    48.34     0  00:00       42.66
  SFT301E5015          JUNCTION     9.91    50.35    50.35     0  00:00       44.40
  SFT301E5016          JUNCTION    10.10    54.52    54.52     0  00:00       48.02
  SFT301E5017          JUNCTION    10.37    56.70    56.70     0  00:00       50.43
  SFT301E5018          JUNCTION    12.25    79.22    79.22     0  15:26       68.22
  SFT301E5019          JUNCTION    15.17   102.19   102.19     0  20:59       95.89
  SFT301E5020          JUNCTION     0.22    49.22    47.90     0  18:32        6.34
  SFT301E5021          JUNCTION     9.98    51.96    51.96     0  00:00       45.80
  SFT37006500          JUNCTION     0.05    51.63    51.56     0  00:00        0.40
  SFT37006600          JUNCTION     0.06    42.44    42.22     0  00:00        0.33
  SFT37006700          JUNCTION     0.06    29.64    29.09     0  00:00        0.46
  SFT37006800          JUNCTION     0.06    20.73    19.85     0  00:00        0.46
  SFT37006900          JUNCTION     0.06    16.41    15.40     0  00:00        0.44
  SFT37007000          JUNCTION     0.05    11.27    10.13     0  00:00        0.39
  SFT37007100          JUNCTION     0.32     7.21     5.37     0  00:00        1.63
  SFT37007300          JUNCTION    22.93    78.71    65.89     0  19:34       50.67
  SFT37007400          JUNCTION    16.47    49.11    41.30     0  19:34       29.29
  SFT37007500          JUNCTION     0.06    18.86    17.92     0  00:00        0.45
  SFT37007600          JUNCTION     8.00     8.00    -5.56     0  00:00        8.00
  SMH30116140          JUNCTION     0.08     0.83    -2.17     0  00:00        0.45
  SMH30116150          JUNCTION     0.10     3.16     0.99     0  00:00        0.26
  SMH30116170          JUNCTION     0.10     3.13     1.97     0  00:00        0.20
  SMH30118160          JUNCTION     0.01    13.29    12.64     0  00:00        0.18
  SMH30118300          JUNCTION     0.10     7.29     5.03     0  00:00        0.60
  SMH30118350          JUNCTION     0.10     7.83     6.58     0  00:00        0.66
  SMH30118360          JUNCTION     0.09     8.00     7.75     0  00:00        0.78
  SMH30118370          JUNCTION     0.02     8.00     8.15     0  00:00        0.52
  SMH30118380          JUNCTION     0.01     8.00     9.40     0  00:00        0.28
  SMH30118390          JUNCTION     0.08     8.00     8.05     0  00:00        0.50
  SMH30118400          JUNCTION     0.08     8.00     9.00     0  00:00        0.26
  SMH30190400          JUNCTION     0.01     8.09     6.51     0  00:00        0.14
  SMH30190600          JUNCTION     0.01     7.74     5.84     0  00:00        0.18
  SMH30190700          JUNCTION     0.01     4.59     1.49     0  00:00        0.25
  SMH30190800          JUNCTION     0.01     2.84    -1.33     0  00:00        0.37
  SMH301E0007          JUNCTION     0.03     8.00     6.78     0  00:00        0.20
  SMH301E0020          JUNCTION     0.14     4.42     2.52     0  00:00        0.36
  SMH37001700          JUNCTION     0.08     6.69     4.23     0  00:00        0.55
  SMH37001800          JUNCTION     0.13     6.05     3.34     0  00:00        0.69
  SMH37001900          JUNCTION     0.07     4.86     2.10     0  00:00        0.40
  SMH37002000          JUNCTION     0.15     3.51     0.34     0  00:00        0.73
  OFALL-310            OUTFALL      8.00     8.00     8.00     0  00:00        8.00
  SLS3010031A          STORAGE      3.97     5.02    -4.38     0  00:08        5.00
  SLS3010031G          STORAGE      4.04     8.79    -5.65     0  00:06        8.75
  SLS301031A1          STORAGE      4.00     6.21    -3.62     0  00:03        5.89
  SLS301031A2          STORAGE      2.75     3.50    -1.41     0  18:48        3.50
  SLS301031A3          STORAGE      4.01     5.50   -10.86     0  00:00        5.00
  SLS301031A4          STORAGE      1.98     2.50    -0.70     0  19:16        2.50
  SLS301031A5          STORAGE      3.25     4.00     0.97     0  20:52        3.99
  SLS301031F1          STORAGE      2.73     3.50    -3.20     0  17:03        3.50
  SLS301031F2          STORAGE      2.27     6.60    -2.34     0  00:03        6.55
  SLS30131F21          STORAGE      1.98     2.50    -1.90     0  18:23        2.50
  SLS30131F22          STORAGE      3.22     4.00    -9.80     0  18:52        4.00
  
  
  *******************
  Node Inflow Summary
  *******************
  
  -------------------------------------------------------------------------------------------------
                                  Maximum  Maximum                  Lateral       Total        Flow
                                  Lateral    Total  Time of Max      Inflow      Inflow     Balance
                                   Inflow   Inflow   Occurrence      Volume      Volume       Error
  Node                 Type           GPM      GPM  days hr:min    10^6 gal    10^6 gal     Percent
  -------------------------------------------------------------------------------------------------
  EAC_SMH30100001      JUNCTION      0.00  1871.51     0  00:01           0       0.103      -1.876
  EAC_SMH30100002      JUNCTION      0.00   695.19     0  00:00           0     0.00894     -11.105
  EAC_SMH30100003      JUNCTION      0.00   499.77     0  00:01           0     0.00812      -9.137
  EAC_SMH30100004      JUNCTION      0.00   495.48     0  00:01           0     0.00772      -5.032
  EAC_SMH30100005      JUNCTION      0.00   463.86     0  00:01           0     0.00709      -8.101
  EAC_SMH30100006      JUNCTION      0.00   448.34     0  00:00           0     0.00618     -12.788
  EAC_SMH30100011      JUNCTION      0.00  1017.28     0  00:01           0       0.091      -2.006
  EAC_SMH30100012      JUNCTION      0.00  1017.40     0  00:01           0      0.0889      -2.330
  EAC_SMH30100013      JUNCTION      0.00  1017.41     0  00:01           0      0.0877      -1.356
  EAC_SMH30100014      JUNCTION      0.00  1055.94     0  00:00           0      0.0867      -1.140
  EAC_SMH30100015      JUNCTION      0.00  1004.65     0  00:01           0      0.0851      -1.868
  EAC_SMH30100016      JUNCTION      0.00   678.91     0  00:01           0      0.0835      -1.884
  EAC_SMH30100019      JUNCTION      0.00   558.71     0  00:00           0      0.0822      -1.503
  JCT-10               JUNCTION      0.00   971.15     0  00:03           0       0.148      -3.836
  JCT-310              JUNCTION      0.00  2411.12     0  00:00           0       0.569       0.007
  JCT-310-1            JUNCTION      0.00  2410.76     0  00:00           0       0.568       0.005
  JCT-310-2            JUNCTION      0.00  2410.26     0  00:00           0       0.584      -0.011
  JCT-312              JUNCTION      0.00   374.37     1  04:20           0     0.00136       4.717
  JCT-31A              JUNCTION      0.00  1598.71     0  17:03           0       0.144      -0.229
  JCT-31A1             JUNCTION      0.00   750.00     0  00:00           0      0.0904       0.044
  JCT-31A1V            JUNCTION      0.00   771.77     0  00:00           0      0.0934       0.014
  JCT-31A2             JUNCTION      0.00   249.05     0  07:09           0      0.0345      -0.148
  JCT-31A2V            JUNCTION      0.00   218.67     0  02:12           0      0.0356      -0.197
  JCT-31A3             JUNCTION      0.00   436.18     0  08:29           0       0.051      -0.010
  JCT-31A3V            JUNCTION      0.00   436.44     0  19:48           0       0.052      -0.458
  JCT-31A4             JUNCTION      0.00   351.55     1  04:20           0     0.00113       0.174
  JCT-31A4V            JUNCTION      0.00   334.01     1  04:20           0     0.00144      -0.457
  JCT-31A5             JUNCTION      0.00   525.00     0  12:47           0     0.00162      -1.601
  JCT-31A5V            JUNCTION      0.00   405.52     0  12:48           0     0.00165     -12.409
  JCT-31AV             JUNCTION      0.00  1585.92     0  17:03           0       0.147      -0.647
  JCT-31F1             JUNCTION      0.00   525.00     0  03:49           0      0.0036      -3.149
  JCT-31F2             JUNCTION      0.00   525.00     0  01:40           0      0.0781      -0.498
  JCT-31F21            JUNCTION      0.00   525.23     0  17:46           0      0.0098      -2.706
  JCT-31F21V           JUNCTION      0.00   466.76     0  16:06           0      0.0103      -2.182
  JCT-31F22            JUNCTION      0.00   750.01     0  10:46           0       0.023      -2.261
  JCT-31F22V           JUNCTION      0.00   846.68     0  20:53           0      0.0244      -2.529
  JCT-31F2V            JUNCTION      0.00   444.43     0  13:30           0      0.0809      -0.417
  SFT30100200          JUNCTION      0.00   476.33     0  00:00           0      0.0414      -0.952
  SFT30100300          JUNCTION      0.00   473.63     0  00:00           0       0.041      -0.945
  SFT30100400          JUNCTION      0.00   472.91     0  00:00           0      0.0406      -1.064
  SFT30100600          JUNCTION      0.00    33.70     0  00:00           0    0.000436       0.000
  SFT30100700          JUNCTION      0.00   516.35     0  16:46           0      0.0441      -1.092
  SFT30100800          JUNCTION      0.00   425.09     0  00:00           0      0.0331      -3.145
  SFT30101000          JUNCTION      0.00   478.30     0  23:51           0       0.081      -0.569
  SFT30101300          JUNCTION      0.00   655.73     0  00:23           0      0.0254      -3.192
  SFT30101500          JUNCTION      0.00   424.77     0  00:00           0      0.0271      -6.126
  SFT30101600          JUNCTION      0.00   642.61     0  00:24           0      0.0262      -3.310
  SFT30101700          JUNCTION      0.00   895.81     0  00:23           0      0.0255      -1.514
  SFT30101800          JUNCTION      0.00  1053.00     0  15:42           0      0.0255      -1.963
  SFT30101900          JUNCTION      0.00   957.05     0  15:04           0      0.0253      -1.543
  SFT30102000          JUNCTION      0.00   986.57     0  21:14           0      0.0253      -1.234
  SFT30102600          JUNCTION      0.00   942.10     0  19:44           0        0.19       0.085
  SFT30102700          JUNCTION      0.00   791.59     0  15:26           0      0.0147      -0.431
  SFT30102800          JUNCTION      0.00  1394.50     0  17:03           0        0.19       0.306
  SFT30102900          JUNCTION      0.00  1545.02     0  17:03           0       0.156      -0.695
  SFT30103100          JUNCTION      0.00   205.38     0  00:00           0      0.0369       0.274
  SFT30104500          JUNCTION      0.00   275.64     0  20:58           0       0.079      -1.609
  SFT30104600          JUNCTION      0.00   305.10     0  17:06           0      0.0803      -0.304
  SFT30104700          JUNCTION      0.00   268.95     0  16:47           0      0.0806      -0.204
  SFT30107200          JUNCTION      0.00   296.93     0  01:06           0      0.0842      -0.388
  SFT30109800          JUNCTION      0.00  1599.07     0  14:57           0       0.435       0.032
  SFT30122000          JUNCTION      0.00   355.91     1  04:20           0     0.00143       0.983
  SFT30123000          JUNCTION      0.00   437.33     0  19:48           0       0.053      -0.087
  SFT30123100          JUNCTION      0.00   438.67     0  19:48           0      0.0535       0.162
  SFT30123200          JUNCTION      0.00   440.12     0  14:56           0      0.0537       0.194
  SFT30191000          JUNCTION      0.00   379.98     0  17:21           0      0.0504      -0.439
  SFT30191200          JUNCTION      0.00   885.14     0  00:00           0       0.106       0.089
  SFT30191300          JUNCTION      0.00   912.85     0  00:00           0       0.136       0.062
  SFT30191600          JUNCTION      0.00   828.68     0  00:00           0      0.0995      -0.040
  SFT30191800          JUNCTION      0.00   441.80     0  14:56           0      0.0588       0.488
  SFT30192000          JUNCTION      0.00   591.02     0  17:21           0      0.0569      -0.104
  SFT30192100          JUNCTION      0.00   907.08     0  00:34           0       0.152       0.110
  SFT30192200          JUNCTION      0.00   939.91     0  00:34           0        0.17       0.128
  SFT30192300          JUNCTION      0.00   986.57     0  00:34           0       0.201       0.239
  SFT30192500          JUNCTION      0.00   955.05     0  19:43           0       0.207       0.625
  SFT30192600          JUNCTION      0.00   946.98     0  19:44           0       0.196       0.149
  SFT30192800          JUNCTION      0.00   219.76     0  00:08           0     0.00436       1.252
  SFT30193100          JUNCTION      0.00     6.02     0  16:48           0     0.00016      25.428
  SFT30193200          JUNCTION      0.00    72.02     0  18:08           0      0.0015       0.143
  SFT30193300          JUNCTION      0.00   305.57     0  02:43           0      0.0101       0.679
  SFT301E5001          JUNCTION      0.00  1549.49     0  14:57           0        0.41       0.143
  SFT301E5002          JUNCTION      0.00   397.31     0  00:00           0     0.00571      -1.164
  SFT301E5003          JUNCTION      0.00   970.95     0  00:03           0        0.16      -0.001
  SFT301E5004          JUNCTION      0.00  1605.77     0  18:12           0       0.438       0.032
  SFT301E5005          JUNCTION      0.00  1615.28     0  18:12           0       0.439      -0.004
  SFT301E5006          JUNCTION      0.00  1598.67     0  14:57           0       0.434       0.029
  SFT301E5007          JUNCTION      0.00  1592.52     0  14:57           0       0.431       0.049
  SFT301E5008          JUNCTION      0.00  1587.90     0  14:57           0       0.426       0.073
  SFT301E5009          JUNCTION      0.00  1587.39     0  14:57           0       0.423       0.174
  SFT301E5010          JUNCTION      0.00  1586.72     0  14:57           0       0.422       0.166
  SFT301E5011          JUNCTION      0.00  1584.59     0  14:57           0       0.421       0.226
  SFT301E5012          JUNCTION      0.00  1575.94     0  14:57           0       0.417       0.127
  SFT301E5013          JUNCTION      0.00  1567.13     0  14:57           0       0.411       0.126
  SFT301E5014          JUNCTION      0.00  1564.03     0  14:57           0       0.407       0.436
  SFT301E5015          JUNCTION      0.00  1561.73     0  14:57           0       0.402       0.595
  SFT301E5016          JUNCTION      0.00  1052.01     0  00:34           0       0.217       1.109
  SFT301E5017          JUNCTION      0.00   953.99     0  19:43           0       0.213       0.380
  SFT301E5018          JUNCTION      0.00   955.00     0  19:43           0       0.212       1.346
  SFT301E5019          JUNCTION      0.00   949.33     0  19:43           0       0.202       0.183
  SFT301E5020          JUNCTION      0.00   160.15     0  01:06           0     0.00321      -8.117
  SFT301E5021          JUNCTION      0.00  1559.51     0  14:57           0       0.392       0.268
  SFT37006500          JUNCTION      0.00   503.47     0  19:47           0     0.00372      -7.703
  SFT37006600          JUNCTION      0.00   452.20     0  11:17           0     0.00403      -9.940
  SFT37006700          JUNCTION      0.00   373.56     0  00:00           0     0.00447     -10.162
  SFT37006800          JUNCTION      0.00   373.64     0  00:00           0     0.00498      -5.465
  SFT37006900          JUNCTION      0.00   380.98     0  00:00           0     0.00539      -3.435
  SFT37007000          JUNCTION      0.00   388.09     0  00:00           0     0.00558      -2.346
  SFT37007100          JUNCTION      0.00   289.81     0  18:32           0      0.0813      -0.362
  SFT37007300          JUNCTION      0.00  1026.94     0  16:35           0       0.159       0.121
  SFT37007400          JUNCTION      0.00   971.06     0  00:03           0        0.16       0.064
  SFT37007500          JUNCTION      0.00   374.01     0  00:00           0     0.00526      -2.316
  SFT37007600          JUNCTION      0.00     0.00     0  00:00           0           0       0.000 gal
  SMH30116140          JUNCTION      0.00   755.56     0  00:01           0      0.0437      -1.361
  SMH30116150          JUNCTION      0.00   695.35     0  00:00           0      0.0425      -2.540
  SMH30116170          JUNCTION      0.00   476.42     0  00:00           0      0.0418      -1.612
  SMH30118160          JUNCTION      0.00   272.71     0  00:00           0     0.00187     -14.964
  SMH30118300          JUNCTION      0.00   487.59     0  00:00           0        0.04      -0.854
  SMH30118350          JUNCTION      0.00   487.59     0  00:00           0      0.0394      -1.563
  SMH30118360          JUNCTION      0.00   487.59     0  00:00           0      0.0386      -1.928
  SMH30118370          JUNCTION      0.00   286.87     0  00:03           0     0.00292     -15.855
  SMH30118380          JUNCTION      0.00   267.34     0  00:00           0     0.00103     -67.373
  SMH30118390          JUNCTION      0.00   216.67     0  00:00           0      0.0352      -0.025
  SMH30118400          JUNCTION      0.00   205.41     0  00:00           0      0.0358      -3.389
  SMH30190400          JUNCTION      0.00   272.71     0  00:00           0      0.0022      -8.943
  SMH30190600          JUNCTION      0.00   418.37     0  00:00           0     0.00242     -16.349
  SMH30190700          JUNCTION      0.00   459.39     0  00:00           0     0.00289     -19.623
  SMH30190800          JUNCTION      0.00   495.04     0  00:01           0      0.0036     -10.556
  SMH301E0007          JUNCTION      0.00   417.17     0  00:00           0     0.00578      -6.551
  SMH301E0020          JUNCTION      0.00   256.48     0  00:04           0      0.0816      -0.745
  SMH37001700          JUNCTION      0.00   487.59     0  00:00           0      0.0404      -0.319
  SMH37001800          JUNCTION      0.00   490.44     0  00:00           0      0.0405      -0.264
  SMH37001900          JUNCTION      0.00   492.58     0  00:00           0      0.0406      -0.280
  SMH37002000          JUNCTION      0.00   504.16     0  00:00           0      0.0407      -0.381
  OFALL-310            OUTFALL       0.00  2411.32     0  00:00           0       0.569       0.000
  SLS3010031A          STORAGE     129.51   566.67     0  00:00       0.102       0.144       0.081
  SLS3010031G          STORAGE      47.77  1896.37     0  00:01      0.0375       0.145      -0.055
  SLS301031A1          STORAGE      43.55  2457.28     0  00:00      0.0342      0.0907      -0.218
  SLS301031A2          STORAGE      42.98    42.98     0  18:00      0.0338      0.0345       0.047
  SLS301031A3          STORAGE      62.46    62.46     0  18:00      0.0491      0.0523       0.013
  SLS301031A4          STORAGE       0.84     0.84     0  18:00    0.000663     0.00119       0.042
  SLS301031A5          STORAGE       1.67     1.67     0  18:00     0.00131     0.00216       0.114
  SLS301031F1          STORAGE       4.30     4.30     0  18:00     0.00338     0.00412       0.061
  SLS301031F2          STORAGE      42.39   962.73     0  00:00      0.0333      0.0787      -0.041
  SLS30131F21          STORAGE      12.15    12.15     0  18:00     0.00955      0.0101       0.010
  SLS30131F22          STORAGE      28.46    28.46     0  18:00      0.0224      0.0232       0.001
  
  
  **********************
  Node Surcharge Summary
  **********************
  
  Surcharging occurs when water rises above the top of the highest conduit.
  ---------------------------------------------------------------------
                                               Max. Height   Min. Depth
                                   Hours       Above Crown    Below Rim
  Node                 Type      Surcharged           Feet         Feet
  ---------------------------------------------------------------------
  EAC_SMH30100001      JUNCTION        0.30          1.840        9.430
  EAC_SMH30100002      JUNCTION        0.01          2.714        6.773
  EAC_SMH30100003      JUNCTION        0.01          3.994        5.772
  EAC_SMH30100004      JUNCTION        0.02          6.224        1.769
  EAC_SMH30100005      JUNCTION        0.01          6.573        2.880
  EAC_SMH30100006      JUNCTION        0.02          6.857        0.477
  EAC_SMH30100011      JUNCTION        0.25          2.998        7.972
  EAC_SMH30100012      JUNCTION        0.19          4.670        5.190
  EAC_SMH30100013      JUNCTION        0.11          6.607        2.623
  EAC_SMH30100014      JUNCTION        0.07          6.709        2.191
  EAC_SMH30100015      JUNCTION        0.01          6.650        0.350
  EAC_SMH30100016      JUNCTION        0.01          6.349        0.651
  EAC_SMH30100019      JUNCTION        0.01          2.386        4.781
  JCT-10               JUNCTION       29.29         69.885        0.000
  JCT-310              JUNCTION       30.00          9.118        0.000
  JCT-310-1            JUNCTION       30.00         12.217        0.000
  JCT-310-2            JUNCTION       30.00         15.455        0.000
  JCT-312              JUNCTION       14.68        121.646        0.000
  JCT-31A              JUNCTION       30.00        126.000        0.000
  JCT-31A1             JUNCTION       29.98        146.464        0.000
  JCT-31A1V            JUNCTION       30.00         81.463        0.000
  JCT-31A2             JUNCTION       28.81         46.461        0.000
  JCT-31A2V            JUNCTION       29.25         50.693        0.000
  JCT-31A3             JUNCTION       29.62         53.615        0.000
  JCT-31A3V            JUNCTION       29.73         54.301        0.000
  JCT-31A4             JUNCTION       30.00         46.195        0.000
  JCT-31A4V            JUNCTION       29.90         48.172        0.000
  JCT-31A5             JUNCTION        0.10         51.632        0.000
  JCT-31A5V            JUNCTION        0.07         58.421        0.000
  JCT-31AV             JUNCTION       26.38        121.125        0.000
  JCT-31F1             JUNCTION        0.16         61.454        0.000
  JCT-31F2             JUNCTION       11.24         38.935        0.000
  JCT-31F21            JUNCTION        1.00         45.840        0.000
  JCT-31F21V           JUNCTION        0.39         45.692        0.000
  JCT-31F22            JUNCTION        7.02        103.619        0.000
  JCT-31F22V           JUNCTION        0.56         65.307        0.000
  JCT-31F2V            JUNCTION        3.43         38.070        0.000
  SFT30100200          JUNCTION        0.03          3.969        3.531
  SFT30100300          JUNCTION        0.06         23.359        0.000
  SFT30100400          JUNCTION        0.06         23.918        0.000
  SFT30100600          JUNCTION        0.13         46.216        0.000
  SFT30100700          JUNCTION        0.14         45.774        0.000
  SFT30100800          JUNCTION        0.03         46.011        0.000
  SFT30101000          JUNCTION        1.13         37.916        0.000
  SFT30101300          JUNCTION        0.04         59.878        0.000
  SFT30101500          JUNCTION        0.03         51.509        0.000
  SFT30101600          JUNCTION        0.05         59.533        0.000
  SFT30101700          JUNCTION        0.16         64.874        0.000
  SFT30101800          JUNCTION        0.47         64.793        0.000
  SFT30101900          JUNCTION        0.49         64.716        0.000
  SFT30102000          JUNCTION        0.55         65.133        0.000
  SFT30102600          JUNCTION       27.09        118.639        0.000
  SFT30102700          JUNCTION       26.43        120.261        0.000
  SFT30102800          JUNCTION       26.83        120.125        0.000
  SFT30102900          JUNCTION       26.45        120.364        0.000
  SFT30103100          JUNCTION       27.55         50.625        0.000
  SFT30104500          JUNCTION        3.15         26.953        0.000
  SFT30104600          JUNCTION        2.82         29.050        0.000
  SFT30104700          JUNCTION        2.77         14.257        0.000
  SFT30107200          JUNCTION        2.68         13.705        0.000
  SFT30109800          JUNCTION       30.00         27.062        0.000
  SFT30122000          JUNCTION       29.93         48.450        0.000
  SFT30123000          JUNCTION       29.71         54.517        0.000
  SFT30123100          JUNCTION       29.99         42.444        0.000
  SFT30123200          JUNCTION       30.00         32.292        0.000
  SFT30191000          JUNCTION        0.01          0.000        7.500
  SFT30191200          JUNCTION       27.98         78.930        0.000
  SFT30191300          JUNCTION       29.21         77.218        0.000
  SFT30191600          JUNCTION       27.80         79.689        0.000
  SFT30191800          JUNCTION        2.49         32.666        0.000
  SFT30192000          JUNCTION        2.32         31.838        0.000
  SFT30192100          JUNCTION       29.93         76.980        0.000
  SFT30192200          JUNCTION       27.88         59.165        0.000
  SFT30192300          JUNCTION       28.57         59.089        0.000
  SFT30192500          JUNCTION       29.54         86.034        0.000
  SFT30192600          JUNCTION       28.38        102.371        0.000
  SFT30192800          JUNCTION       30.00         59.444        0.000
  SFT30193100          JUNCTION       29.99         77.671        0.000
  SFT30193200          JUNCTION       30.00         77.574        0.000
  SFT30193300          JUNCTION       30.00         77.397        0.000
  SFT301E5001          JUNCTION       27.29         52.998        0.000
  SFT301E5002          JUNCTION        0.02          9.445        0.000
  SFT301E5003          JUNCTION       30.00         24.747        0.000
  SFT301E5004          JUNCTION       30.00         26.934        0.000
  SFT301E5005          JUNCTION       30.00         27.920        0.000
  SFT301E5006          JUNCTION       30.00         29.824        0.000
  SFT301E5007          JUNCTION       30.00         31.952        0.000
  SFT301E5008          JUNCTION       29.99         32.047        0.000
  SFT301E5009          JUNCTION       29.99         41.468        0.000
  SFT301E5010          JUNCTION       29.99         88.360        0.000
  SFT301E5011          JUNCTION       29.99         44.693        0.000
  SFT301E5012          JUNCTION       29.98         45.791        0.000
  SFT301E5013          JUNCTION       29.86         46.082        0.000
  SFT301E5014          JUNCTION       29.82         47.003        0.000
  SFT301E5015          JUNCTION       29.69         49.018        0.000
  SFT301E5016          JUNCTION       29.99         53.517        0.000
  SFT301E5017          JUNCTION       29.98         56.032        0.000
  SFT301E5018          JUNCTION       29.73         78.553        0.000
  SFT301E5019          JUNCTION       29.20        101.526        0.000
  SFT301E5020          JUNCTION        0.45         48.722        0.000
  SFT301E5021          JUNCTION       29.03         50.627        0.000
  SFT37006500          JUNCTION        0.06         51.133        0.000
  SFT37006600          JUNCTION        0.02         41.940        0.000
  SFT37006700          JUNCTION        0.04         29.137        0.000
  SFT37006800          JUNCTION        0.03         20.226        0.000
  SFT37006900          JUNCTION        0.02         15.915        0.000
  SFT37007000          JUNCTION        0.02         10.774        0.000
  SFT37007100          JUNCTION        0.38          6.706        0.794
  SFT37007300          JUNCTION       30.00         78.039        0.000
  SFT37007400          JUNCTION       30.00         48.109        0.000
  SFT37007500          JUNCTION        0.02         18.360        0.000
  SFT37007600          JUNCTION       30.00          8.000        0.000
  SMH30116140          JUNCTION        0.01          0.000        7.497
  SMH30116150          JUNCTION        0.01          2.326        4.841
  SMH30116170          JUNCTION        0.01          2.301        4.896
  SMH30118160          JUNCTION        0.02         12.790        0.000
  SMH30118300          JUNCTION        0.05          6.622        1.871
  SMH30118350          JUNCTION        0.08          7.160        0.173
  SMH30118360          JUNCTION        0.10          7.333        0.000
  SMH30118370          JUNCTION        0.06          7.333        0.000
  SMH30118380          JUNCTION        0.02          7.333        0.000
  SMH30118390          JUNCTION        0.06          7.333        0.000
  SMH30118400          JUNCTION        0.03          7.333        0.000
  SMH30190400          JUNCTION        0.01          7.423        0.481
  SMH30190600          JUNCTION        0.01          7.074        1.020
  SMH30190700          JUNCTION        0.01          3.928        8.186
  SMH30190800          JUNCTION        0.01          2.176        8.487
  SMH301E0007          JUNCTION        0.01          7.333        0.000
  SMH301E0020          JUNCTION        0.01          3.583        3.583
  SMH37001700          JUNCTION        0.01          6.020        2.704
  SMH37001800          JUNCTION        0.13          5.384        3.979
  SMH37001900          JUNCTION        0.01          4.190        4.973
  SMH37002000          JUNCTION        0.15          2.846        6.307
  
  
  *********************
  Node Flooding Summary
  *********************
  
  Flooding refers to all water that overflows a node, whether it ponds or not.
  --------------------------------------------------------------------------
                                                             Total   Maximum
                                 Maximum   Time of Max       Flood    Ponded
                        Hours       Rate    Occurrence      Volume     Depth
  Node                 Flooded       GPM   days hr:min    10^6 gal      Feet
  --------------------------------------------------------------------------
  SMH30118160             0.01      1.11      0  00:00       0.000     5.290
  SMH30118360             0.01      1.82      0  00:00       0.000     0.000
  SMH30118370             0.01      1.85      0  00:00       0.000     0.000
  SMH30118380             0.01     17.19      0  00:00       0.000     0.000
  SMH30118400             0.01     47.40      0  00:00       0.000     0.000
  SMH301E0007             0.01     61.89      0  00:00       0.000     0.000
  
  
  **********************
  Storage Volume Summary
  **********************
  
  ------------------------------------------------------------------------------------------------
                         Average    Avg   Evap  Exfil     Maximum    Max    Time of Max    Maximum
                          Volume   Pcnt   Pcnt   Pcnt      Volume   Pcnt     Occurrence    Outflow
  Storage Unit          1000 ftł   Full   Loss   Loss    1000 ftł   Full    days hr:min        GPM
  ------------------------------------------------------------------------------------------------
  SLS3010031A              0.200   23.9    0.0    0.0       0.252   30.2       0  00:08    1598.71
  SLS3010031G              0.317   19.8    0.0    0.0       0.690   43.0       0  00:06     971.15
  SLS301031A1              0.201   22.7    0.0    0.0       0.312   35.3       0  00:03     750.00
  SLS301031A2              0.078   23.3    0.0    0.0       0.099   29.7       0  18:48     249.05
  SLS301031A3              0.315   16.7    0.0    0.0       0.432   23.0       0  00:00     436.18
  SLS301031A4              0.056   15.9    0.0    0.0       0.071   20.1       0  19:16     351.55
  SLS301031A5              0.092   21.0    0.0    0.0       0.113   25.8       0  20:52     525.00
  SLS301031F1              0.077   22.3    0.0    0.0       0.099   28.6       0  17:03     525.00
  SLS301031F2              0.114   15.8    0.0    0.0       0.332   46.1       0  00:03     525.00
  SLS30131F21              0.056   20.7    0.0    0.0       0.071   26.1       0  18:23     525.00
  SLS30131F22              0.091   16.9    0.0    0.0       0.113   21.1       0  18:52     750.00
  
  
  ***********************
  Outfall Loading Summary
  ***********************
  
  -----------------------------------------------------------
                         Flow       Avg       Max       Total
                         Freq      Flow      Flow      Volume
  Outfall Node           Pcnt       GPM       GPM    10^6 gal
  -----------------------------------------------------------
  OFALL-310             99.71    319.40   2411.32       0.569
  -----------------------------------------------------------
  System                99.71    319.40   2411.32       0.569
  
  
  ********************
  Link Flow Summary
  ********************
  
  -----------------------------------------------------------------------------
                                 Maximum  Time of Max   Maximum    Max/    Max/
                                  |Flow|   Occurrence   |Veloc|    Full    Full
  Link                 Type          GPM  days hr:min    ft/sec    Flow   Depth
  -----------------------------------------------------------------------------
  CDT-310              CONDUIT   2411.12     0  00:00      3.85   32.06    1.00
  CDT-310-1            CONDUIT   2411.32     0  00:00      3.85   27.71    1.00
  CDT-312              CONDUIT    267.34     0  00:00      3.55    5.93    1.00
  CDT-31A1D            CONDUIT    771.77     0  00:00      8.76  112.49    1.00
  CDT-31A2D            CONDUIT    218.67     0  02:12      5.58   77.98    1.00
  CDT-31A3D            CONDUIT    436.44     0  19:48      4.95   63.61    1.00
  CDT-31A4D            CONDUIT    334.01     1  04:20      8.53  119.12    1.00
  CDT-31A5D            CONDUIT    405.52     0  12:48     14.50  144.62    1.00
  CDT-31F1D            CONDUIT    503.47     0  19:47     16.46   19.42    1.00
  CDT-31F2             CONDUIT    444.43     0  13:30     11.40  158.50    1.00
  CDT-31F21D           CONDUIT    466.76     0  16:06     12.11  166.46    1.00
  CDT-31F22            CONDUIT    846.68     0  20:53     10.80  123.41    1.00
  CDT-331AD            CONDUIT   1585.92     0  17:03     18.00  231.15    1.00
  CDT-35               CONDUIT   2410.76     0  00:00     15.39  108.37    1.00
  EAC_SGP30100003      CONDUIT    695.19     0  00:00      3.40    0.93    1.00
  EAC_SGP30100006      CONDUIT    463.86     0  00:01      3.11    1.04    1.00
  EAC_SGP30100013      CONDUIT   1017.40     0  00:01      2.89    0.94    1.00
  EAC_SGP30100014      CONDUIT   1017.41     0  00:01      2.89    0.76    1.00
  EAC_SGP30100015      CONDUIT   1055.94     0  00:00      3.01    0.96    1.00
  EAC_SGP30100016      CONDUIT   1004.65     0  00:01      3.13    0.91    1.00
  EAC_SGP30100019      CONDUIT    678.91     0  00:01      3.11    1.00    1.00
  EAC_SPG30100001      CONDUIT   1872.82     0  00:01      5.48    1.91    1.00
  EAC_SPG30100002      CONDUIT    918.83     0  00:00      3.93    0.86    1.00
  EAC_SPG30100004      CONDUIT    499.77     0  00:01      3.47    1.08    1.00
  EAC_SPG30100005      CONDUIT    495.48     0  00:01      3.22    1.03    1.00
  EAC_SPG30100011      CONDUIT   1017.34     0  00:01      2.89    0.93    1.00
  EAC_SPG30100012      CONDUIT   1017.28     0  00:01      2.89    1.02    1.00
  SGP30116140          CONDUIT    941.84     0  00:00      5.57    0.72    0.86
  SGP30116150          CONDUIT    755.56     0  00:01      3.94    1.01    1.00
  SGP30116170          CONDUIT    695.35     0  00:00      3.08    0.94    1.00
  SGP30118160          CONDUIT    272.71     0  00:00      3.49    1.25    1.00
  SGP30118300          CONDUIT    487.59     0  00:00      3.20    1.22    1.00
  SGP30118350          CONDUIT    487.59     0  00:00      3.11    1.20    1.00
  SGP30118360          CONDUIT    487.59     0  00:00      3.11    1.20    1.00
  SGP30118370          CONDUIT    287.24     0  00:04      2.11    0.64    1.00
  SGP30118380          CONDUIT    286.87     0  00:03      2.16    0.64    1.00
  SGP30118390          CONDUIT    215.56     0  00:00      2.66    0.48    1.00
  SGP30118400          CONDUIT    216.67     0  00:00      2.78    0.49    1.00
  SGP30190400          CONDUIT    418.37     0  00:00      3.12    0.68    1.00
  SGP30190600          CONDUIT    459.39     0  00:00      3.09    1.03    1.00
  SGP30190700          CONDUIT    495.04     0  00:01      3.33    1.07    1.00
  SGP30190800          CONDUIT    507.21     0  00:01      3.62    1.11    0.98
  SGP301E0007          CONDUIT    448.34     0  00:00      2.98    1.01    1.00
  SGP301E0020          CONDUIT    558.71     0  00:00      2.55    0.82    1.00
  SGP37001700          CONDUIT    490.44     0  00:00      3.13    0.89    1.00
  SGP37001800          CONDUIT    492.58     0  00:00      3.38    2.05    1.00
  SGP37001900          CONDUIT    504.16     0  00:00      3.43    0.75    1.00
  SGP37002000          CONDUIT    502.84     0  00:00      3.46   14.96    0.88
  SPI30100200          CONDUIT    476.42     0  00:00      5.41    6.79    1.00
  SPI30100300          CONDUIT    476.33     0  00:00      5.40    6.79    1.00
  SPI3010031A          CONDUIT   1545.02     0  17:03      9.86  102.19    1.00
  SPI30100400          CONDUIT    473.63     0  00:00      5.37    6.75    1.00
  SPI30100600          CONDUIT     47.24     0  00:01      0.54    3.33    1.00
  SPI30100700          CONDUIT    472.91     0  00:00      5.37    6.74    1.00
  SPI30100800          CONDUIT    414.60     0  00:00      4.70    4.51    1.00
  SPI30101000          CONDUIT    275.64     0  20:58      3.23    4.51    1.00
  SPI30101300          CONDUIT    642.61     0  00:24      4.23   35.52    1.00
  SPI30101500          CONDUIT    425.09     0  00:00      2.71   97.60    1.00
  SPI30101600          CONDUIT    424.77     0  00:00      2.71  110.46    1.00
  SPI30101700          CONDUIT    655.73     0  00:23      4.25  132.82    1.00
  SPI30101800          CONDUIT    895.81     0  00:23      7.28   24.55    1.00
  SPI30101900          CONDUIT   1053.00     0  15:42      6.76   22.12    1.00
  SPI30102000          CONDUIT    957.05     0  15:04      6.24   45.54    1.00
  SPI30102600          CONDUIT    946.98     0  19:44      6.04  185.05    1.00
  SPI30102700          CONDUIT    791.59     0  15:26      5.05   27.54    1.00
  SPI30102800          CONDUIT    942.10     0  19:44      6.01   49.02    1.00
  SPI30102900          CONDUIT   1394.50     0  17:03      8.90   40.46    1.00
  SPI30103100          CONDUIT    205.41     0  00:00      5.46    6.16    1.00
  SPI301031A1          CONDUIT    828.68     0  00:00      9.40   68.52    1.00
  SPI301031A2          CONDUIT    205.38     0  00:00      5.24    6.16    1.00
  SPI301031A3          CONDUIT    437.33     0  19:48      4.96    3.59    1.00
  SPI301031A4          CONDUIT    355.91     1  04:20      4.04   36.82    1.00
  SPI301031A5          CONDUIT    272.71     0  00:00      8.86    7.30    1.00
  SPI301031F2          CONDUIT    478.30     0  23:51      7.65    7.82    1.00
  SPI30104500          CONDUIT    305.10     0  17:06      3.47    4.99    1.00
  SPI30104600          CONDUIT    268.95     0  16:47      3.09    4.40    1.00
  SPI30104700          CONDUIT    296.93     0  01:06      3.37    4.86    1.00
  SPI30109800          CONDUIT   1605.77     0  18:12      2.56   12.41    1.00
  SPI30122000          CONDUIT    374.37     1  04:20      4.25    4.28    1.00
  SPI30123000          CONDUIT    438.67     0  19:48      4.98    3.61    1.00
  SPI30123100          CONDUIT    440.12     0  14:56      2.81    1.72    1.00
  SPI30123200          CONDUIT    441.80     0  14:56      2.82    1.72    1.00
  SPI30131F21          CONDUIT    488.86     0  16:46      7.98    6.96    1.00
  SPI30131F22          CONDUIT    986.57     0  21:14      6.76   28.62    1.00
  SPI30191000          CONDUIT   1989.31     0  00:00     29.64    0.35    1.00
  SPI30191200          CONDUIT    912.85     0  00:00      5.83   76.61    1.00
  SPI30191300          CONDUIT    907.08     0  00:34      5.79   24.86    1.00
  SPI30191600          CONDUIT    885.14     0  00:00      5.65   48.53    1.00
  SPI30191800          CONDUIT    591.02     0  17:21      3.93    2.31    1.00
  SPI30192000          CONDUIT    379.98     0  17:21      7.79    3.12    1.00
  SPI30192100          CONDUIT    939.91     0  00:34      6.00  262.38    1.00
  SPI30192200          CONDUIT    966.98     0  00:34      2.74   11.31    1.00
  SPI30192300          CONDUIT   1052.01     0  00:34      2.98  113.97    1.00
  SPI30192500          CONDUIT    955.00     0  19:43      6.10  207.98    1.00
  SPI30192600          CONDUIT    949.33     0  19:43      6.06   37.26    1.00
  SPI30192800          CONDUIT    219.76     0  00:08      1.40    9.64    1.00
  SPI30193100          CONDUIT      6.02     0  16:48      0.27    9.76    1.00
  SPI30193200          CONDUIT     72.02     0  18:08      1.84   15.38    1.00
  SPI30193300          CONDUIT    305.57     0  02:43      3.47   14.17    1.00
  SPI301E5001          CONDUIT   1559.51     0  14:57      2.49   55.93    1.00
  SPI301E5002          CONDUIT    417.17     0  00:00      4.73    5.63    1.00
  SPI301E5003          CONDUIT    970.67     0  00:03      2.75    0.65    1.00
  SPI301E5004          CONDUIT   1615.28     0  18:12      2.58   58.61    1.00
  SPI301E5005          CONDUIT   1615.96     0  18:12     10.31  138.67    1.00
  SPI301E5006          CONDUIT   1599.07     0  14:57      2.55   67.14    1.00
  SPI301E5007          CONDUIT   1598.67     0  14:57      2.55   58.16    1.00
  SPI301E5008          CONDUIT   1592.52     0  14:57      2.54   11.46    1.00
  SPI301E5009          CONDUIT   1587.90     0  14:57      2.53   79.49    1.00
  SPI301E5010          CONDUIT   1587.39     0  14:57      2.53   64.33    1.00
  SPI301E5011          CONDUIT   1586.72     0  14:57      2.53   85.55    1.00
  SPI301E5012          CONDUIT   1584.59     0  14:57      2.53   35.93    1.00
  SPI301E5013          CONDUIT   1575.94     0  14:57      2.51   17.71    1.00
  SPI301E5014          CONDUIT   1567.13     0  14:57      2.50   33.46    1.00
  SPI301E5015          CONDUIT   1564.03     0  14:57      2.50   51.28    1.00
  SPI301E5016          CONDUIT   1054.24     0  00:34      2.99   18.84    1.00
  SPI301E5017          CONDUIT    951.81     0  19:43      6.08   81.08    1.00
  SPI301E5018          CONDUIT    953.99     0  19:43      6.09  230.95    1.00
  SPI301E5019          CONDUIT    955.05     0  19:43      6.10  195.58    1.00
  SPI301E5020          CONDUIT    160.15     0  01:06      2.14    2.62    1.00
  SPI301E5021          CONDUIT   1561.73     0  14:57      2.49   45.37    1.00
  SPI37006500          CONDUIT    452.20     0  11:17      8.79    6.10    1.00
  SPI37006600          CONDUIT    373.56     0  00:00      4.24    5.04    1.00
  SPI37006700          CONDUIT    373.64     0  00:00      4.24    5.04    1.00
  SPI37006800          CONDUIT    374.01     0  00:00      4.24    5.05    1.00
  SPI37006900          CONDUIT    388.09     0  00:00      4.40    5.24    1.00
  SPI37007000          CONDUIT    397.31     0  00:00      4.51    5.36    1.00
  SPI37007100          CONDUIT    256.48     0  00:04      3.67    4.19    1.00
  SPI37007200          CONDUIT    289.81     0  18:32      3.32    4.74    1.00
  SPI37007300          CONDUIT    971.06     0  00:03      6.20    1.87    1.00
  SPI37007400          CONDUIT    970.95     0  00:03      2.75    0.65    1.00
  SPI37007500          CONDUIT    380.98     0  00:00      4.32    5.14    1.00
  SPI37007600          CONDUIT   1026.94     0  16:35      6.55    0.42    1.00
  PUMP-11              PUMP       971.15     0  00:03              0.88
  PUMP-31A             PUMP      1598.71     0  17:03              0.86
  PUMP-31A1            PUMP       750.00     0  00:00              1.00
  PUMP-31A2            PUMP       249.05     0  07:09              0.47
  PUMP-31A3            PUMP       436.18     0  08:29              0.83
  PUMP-31A4            PUMP       351.55     1  04:20              0.67
  PUMP-31A5            PUMP       525.00     0  12:47              1.00
  PUMP-31F1            PUMP       525.00     0  03:49              1.00
  PUMP-31F2            PUMP       525.00     0  01:40              1.00
  PUMP-31F21           PUMP       525.00     0  01:22              1.00
  PUMP-31F22           PUMP       750.00     0  00:00              1.00
  
  
  ***************************
  Flow Classification Summary
  ***************************
  
  -------------------------------------------------------------------------------------
                      Adjusted    ---------- Fraction of Time in Flow Class ---------- 
                       /Actual         Up    Down  Sub   Sup   Up    Down  Norm  Inlet 
  Conduit               Length    Dry  Dry   Dry   Crit  Crit  Crit  Crit  Ltd   Ctrl  
  -------------------------------------------------------------------------------------
  CDT-310                 1.00   0.00  0.00  0.00  1.00  0.00  0.00  0.00  0.00  0.00
  CDT-310-1               1.00   0.00  0.00  0.00  1.00  0.00  0.00  0.00  0.00  0.00
  CDT-312                 1.00   0.00  0.00  0.00  1.00  0.00  0.00  0.00  0.98  0.00
  CDT-31A1D               1.00   0.00  0.00  0.00  1.00  0.00  0.00  0.00  0.00  0.00
  CDT-31A2D               1.00   0.00  0.00  0.00  1.00  0.00  0.00  0.00  0.00  0.00
  CDT-31A3D               1.00   0.00  0.00  0.00  1.00  0.00  0.00  0.00  0.00  0.00
  CDT-31A4D               1.00   0.00  0.00  0.00  1.00  0.00  0.00  0.00  0.00  0.00
  CDT-31A5D               1.00   0.00  0.00  0.00  1.00  0.00  0.00  0.00  0.00  0.00
  CDT-31F1D               1.00   0.00  0.00  0.00  1.00  0.00  0.00  0.00  0.96  0.00
  CDT-31F2                1.00   0.00  0.00  0.00  1.00  0.00  0.00  0.00  0.01  0.00
  CDT-31F21D              1.00   0.00  0.00  0.00  1.00  0.00  0.00  0.00  0.00  0.00
  CDT-31F22               1.00   0.00  0.00  0.00  1.00  0.00  0.00  0.00  0.00  0.00
  CDT-331AD               1.00   0.00  0.00  0.00  1.00  0.00  0.00  0.00  0.00  0.00
  CDT-35                  1.00   0.00  0.00  0.00  1.00  0.00  0.00  0.00  0.00  0.00
  EAC_SGP30100003         1.00   0.00  0.00  0.00  0.90  0.10  0.00  0.00  0.01  0.00
  EAC_SGP30100006         1.00   0.00  0.00  0.00  0.92  0.08  0.00  0.00  0.84  0.00
  EAC_SGP30100013         1.00   0.00  0.00  0.00  1.00  0.00  0.00  0.00  0.99  0.00
  EAC_SGP30100014         1.00   0.00  0.00  0.00  1.00  0.00  0.00  0.00  0.99  0.00
  EAC_SGP30100015         1.00   0.00  0.00  0.00  1.00  0.00  0.00  0.00  0.00  0.00
  EAC_SGP30100016         1.00   0.00  0.00  0.00  1.00  0.00  0.00  0.00  1.00  0.00
  EAC_SGP30100019         1.00   0.00  0.00  0.00  1.00  0.00  0.00  0.00  0.01  0.00
  EAC_SPG30100001         1.00   0.00  0.00  0.00  0.01  0.00  0.00  0.99  0.00  0.00
  EAC_SPG30100002         1.00   0.00  0.00  0.00  1.00  0.00  0.00  0.00  0.99  0.00
  EAC_SPG30100004         1.00   0.00  0.00  0.00  0.93  0.07  0.00  0.00  0.92  0.00
  EAC_SPG30100005         1.00   0.00  0.00  0.00  0.92  0.08  0.00  0.00  0.92  0.00
  EAC_SPG30100011         1.00   0.00  0.00  0.00  1.00  0.00  0.00  0.00  0.99  0.00
  EAC_SPG30100012         1.00   0.00  0.00  0.00  1.00  0.00  0.00  0.00  0.01  0.00
  SGP30116140             1.00   0.00  0.00  0.00  0.00  0.00  0.00  1.00  0.00  0.00
  SGP30116150             1.00   0.00  0.00  0.00  0.00  1.00  0.00  0.00  0.00  0.00
  SGP30116170             1.00   0.00  0.00  0.00  1.00  0.00  0.00  0.00  1.00  0.00
  SGP30118160             1.00   0.00  0.00  0.00  0.94  0.06  0.00  0.00  0.00  0.00
  SGP30118300             1.00   0.00  0.00  0.00  0.59  0.41  0.00  0.00  0.00  0.00
  SGP30118350             1.00   0.00  0.00  0.00  0.90  0.10  0.00  0.00  0.75  0.00
  SGP30118360             1.00   0.00  0.00  0.00  0.82  0.18  0.00  0.00  0.75  0.00
  SGP30118370             1.00   0.00  0.12  0.00  0.88  0.00  0.00  0.00  1.00  0.00
  SGP30118380             1.00   0.00  0.00  0.00  0.99  0.01  0.00  0.00  0.99  0.00
  SGP30118390             1.00   0.00  0.00  0.00  0.85  0.15  0.00  0.00  0.84  0.00
  SGP30118400             1.00   0.00  0.00  0.00  0.87  0.13  0.00  0.00  0.87  0.00
  SGP30190400             1.00   0.00  0.00  0.00  0.99  0.01  0.00  0.00  0.98  0.00
  SGP30190600             1.00   0.00  0.00  0.00  0.99  0.01  0.00  0.00  0.49  0.00
  SGP30190700             1.00   0.00  0.00  0.00  0.98  0.02  0.00  0.00  0.98  0.00
  SGP30190800             1.00   0.00  0.00  0.00  0.00  0.00  0.00  1.00  0.00  0.00
  SGP301E0007             1.00   0.00  0.00  0.00  0.94  0.06  0.00  0.00  0.91  0.00
  SGP301E0020             1.00   0.00  0.00  0.00  1.00  0.00  0.00  0.00  0.96  0.00
  SGP37001700             1.00   0.00  0.00  0.00  1.00  0.00  0.00  0.00  0.99  0.00
  SGP37001800             1.00   0.00  0.00  0.00  1.00  0.00  0.00  0.00  0.00  0.00
  SGP37001900             1.00   0.00  0.00  0.00  1.00  0.00  0.00  0.00  1.00  0.00
  SGP37002000             1.00   0.00  0.00  0.00  0.00  0.00  0.00  1.00  0.00  0.00
  SPI30100200             1.00   0.00  0.00  0.00  1.00  0.00  0.00  0.00  0.00  0.00
  SPI30100300             1.00   0.00  0.00  0.00  1.00  0.00  0.00  0.00  0.98  0.00
  SPI3010031A             1.00   0.00  0.00  0.00  1.00  0.00  0.00  0.00  0.00  0.00
  SPI30100400             1.00   0.00  0.00  0.00  1.00  0.00  0.00  0.00  0.00  0.00
  SPI30100600             1.00   0.00  0.00  0.00  1.00  0.00  0.00  0.00  0.00  0.00
  SPI30100700             1.00   0.00  0.00  0.00  1.00  0.00  0.00  0.00  0.69  0.00
  SPI30100800             1.00   0.00  0.00  0.00  1.00  0.00  0.00  0.00  0.00  0.00
  SPI30101000             1.00   0.00  0.00  0.00  1.00  0.00  0.00  0.00  0.51  0.00
  SPI30101300             1.00   0.00  0.00  0.00  1.00  0.00  0.00  0.00  0.00  0.00
  SPI30101500             1.00   0.00  0.00  0.00  1.00  0.00  0.00  0.00  0.00  0.00
  SPI30101600             1.00   0.00  0.00  0.00  1.00  0.00  0.00  0.00  0.00  0.00
  SPI30101700             1.00   0.00  0.00  0.00  1.00  0.00  0.00  0.00  0.00  0.00
  SPI30101800             1.00   0.00  0.00  0.00  0.99  0.01  0.00  0.00  0.00  0.00
  SPI30101900             1.00   0.00  0.00  0.00  1.00  0.00  0.00  0.00  0.00  0.00
  SPI30102000             1.00   0.00  0.00  0.00  1.00  0.00  0.00  0.00  0.00  0.00
  SPI30102600             1.00   0.00  0.00  0.00  1.00  0.00  0.00  0.00  0.01  0.00
  SPI30102700             1.00   0.00  0.00  0.00  1.00  0.00  0.00  0.00  0.00  0.00
  SPI30102800             1.00   0.00  0.00  0.00  1.00  0.00  0.00  0.00  0.00  0.00
  SPI30102900             1.00   0.00  0.00  0.00  1.00  0.00  0.00  0.00  0.00  0.00
  SPI30103100             1.00   0.00  0.00  0.00  0.88  0.12  0.00  0.00  0.08  0.00
  SPI301031A1             1.00   0.00  0.00  0.00  1.00  0.00  0.00  0.00  0.00  0.00
  SPI301031A2             1.00   0.00  0.00  0.00  1.00  0.00  0.00  0.00  0.00  0.00
  SPI301031A3             1.00   0.00  0.00  0.00  1.00  0.00  0.00  0.00  0.00  0.00
  SPI301031A4             1.00   0.00  0.00  0.00  1.00  0.00  0.00  0.00  0.00  0.00
  SPI301031A5             1.00   0.00  0.00  0.00  1.00  0.00  0.00  0.00  0.45  0.00
  SPI301031F2             1.00   0.00  0.00  0.00  0.93  0.07  0.00  0.00  0.00  0.00
  SPI30104500             1.00   0.00  0.00  0.00  1.00  0.00  0.00  0.00  0.05  0.00
  SPI30104600             1.00   0.00  0.00  0.00  1.00  0.00  0.00  0.00  0.34  0.00
  SPI30104700             1.00   0.00  0.00  0.00  1.00  0.00  0.00  0.00  0.00  0.00
  SPI30109800             1.00   0.00  0.00  0.00  1.00  0.00  0.00  0.00  0.00  0.00
  SPI30122000             1.00   0.00  0.00  0.00  1.00  0.00  0.00  0.00  0.00  0.00
  SPI30123000             1.00   0.00  0.00  0.00  1.00  0.00  0.00  0.00  0.00  0.00
  SPI30123100             1.00   0.00  0.00  0.00  1.00  0.00  0.00  0.00  0.00  0.00
  SPI30123200             1.00   0.00  0.00  0.00  1.00  0.00  0.00  0.00  0.00  0.00
  SPI30131F21             1.00   0.00  0.00  0.00  0.99  0.01  0.00  0.00  0.00  0.00
  SPI30131F22             1.00   0.00  0.00  0.00  1.00  0.00  0.00  0.00  0.00  0.00
  SPI30191000             5.76   0.00  0.56  0.00  0.36  0.08  0.00  0.00  1.00  0.00
  SPI30191200             1.00   0.00  0.00  0.00  1.00  0.00  0.00  0.00  0.01  0.00
  SPI30191300             1.00   0.00  0.00  0.00  1.00  0.00  0.00  0.00  0.00  0.00
  SPI30191600             1.00   0.00  0.00  0.00  1.00  0.00  0.00  0.00  0.00  0.00
  SPI30191800             1.00   0.00  0.00  0.00  1.00  0.00  0.00  0.00  0.00  0.00
  SPI30192000             1.00   0.00  0.56  0.00  0.36  0.08  0.00  0.00  0.88  0.00
  SPI30192100             1.00   0.00  0.00  0.00  1.00  0.00  0.00  0.00  0.00  0.00
  SPI30192200             1.00   0.00  0.00  0.00  1.00  0.00  0.00  0.00  0.00  0.00
  SPI30192300             1.00   0.00  0.00  0.00  1.00  0.00  0.00  0.00  0.00  0.00
  SPI30192500             1.00   0.00  0.00  0.00  1.00  0.00  0.00  0.00  0.00  0.00
  SPI30192600             1.00   0.00  0.00  0.00  1.00  0.00  0.00  0.00  0.00  0.00
  SPI30192800             1.00   0.00  0.00  0.00  1.00  0.00  0.00  0.00  0.00  0.00
  SPI30193100             1.00   0.00  0.00  0.00  1.00  0.00  0.00  0.00  0.00  0.00
  SPI30193200             1.00   0.00  0.00  0.00  1.00  0.00  0.00  0.00  0.00  0.00
  SPI30193300             1.00   0.00  0.00  0.00  1.00  0.00  0.00  0.00  0.00  0.00
  SPI301E5001             1.00   0.00  0.00  0.00  1.00  0.00  0.00  0.00  0.00  0.00
  SPI301E5002             1.00   0.00  0.00  0.00  1.00  0.00  0.00  0.00  0.00  0.00
  SPI301E5003             1.00   0.00  0.00  0.00  1.00  0.00  0.00  0.00  0.00  0.00
  SPI301E5004             1.00   0.00  0.00  0.00  1.00  0.00  0.00  0.00  0.00  0.00
  SPI301E5005             1.00   0.00  0.00  0.00  1.00  0.00  0.00  0.00  0.00  0.00
  SPI301E5006             1.00   0.00  0.00  0.00  1.00  0.00  0.00  0.00  0.00  0.00
  SPI301E5007             1.00   0.00  0.00  0.00  1.00  0.00  0.00  0.00  0.00  0.00
  SPI301E5008             1.00   0.00  0.00  0.00  1.00  0.00  0.00  0.00  0.00  0.00
  SPI301E5009             1.00   0.00  0.00  0.00  1.00  0.00  0.00  0.00  0.00  0.00
  SPI301E5010             1.00   0.00  0.00  0.00  1.00  0.00  0.00  0.00  0.00  0.00
  SPI301E5011             1.00   0.00  0.00  0.00  1.00  0.00  0.00  0.00  0.00  0.00
  SPI301E5012             1.00   0.00  0.00  0.00  1.00  0.00  0.00  0.00  0.00  0.00
  SPI301E5013             1.00   0.00  0.00  0.00  1.00  0.00  0.00  0.00  0.00  0.00
  SPI301E5014             1.00   0.00  0.00  0.00  1.00  0.00  0.00  0.00  0.00  0.00
  SPI301E5015             1.00   0.00  0.00  0.00  1.00  0.00  0.00  0.00  0.00  0.00
  SPI301E5016             1.00   0.00  0.00  0.00  1.00  0.00  0.00  0.00  0.00  0.00
  SPI301E5017             1.00   0.00  0.00  0.00  1.00  0.00  0.00  0.00  0.00  0.00
  SPI301E5018             1.00   0.00  0.00  0.00  1.00  0.00  0.00  0.00  0.00  0.00
  SPI301E5019             1.00   0.00  0.00  0.00  1.00  0.00  0.00  0.00  0.01  0.00
  SPI301E5020             1.00   0.00  0.00  0.00  1.00  0.00  0.00  0.00  0.17  0.00
  SPI301E5021             1.00   0.00  0.00  0.00  1.00  0.00  0.00  0.00  0.00  0.00
  SPI37006500             1.00   0.00  0.00  0.00  1.00  0.00  0.00  0.00  0.98  0.00
  SPI37006600             1.00   0.00  0.00  0.00  1.00  0.00  0.00  0.00  0.93  0.00
  SPI37006700             1.00   0.00  0.00  0.00  1.00  0.00  0.00  0.00  0.87  0.00
  SPI37006800             1.00   0.00  0.00  0.00  1.00  0.00  0.00  0.00  0.86  0.00
  SPI37006900             1.00   0.00  0.00  0.00  1.00  0.00  0.00  0.00  0.89  0.00
  SPI37007000             1.00   0.00  0.00  0.00  1.00  0.00  0.00  0.00  0.64  0.00
  SPI37007100             1.00   0.00  0.00  0.00  1.00  0.00  0.00  0.00  0.00  0.00
  SPI37007200             1.00   0.00  0.00  0.00  1.00  0.00  0.00  0.00  0.44  0.00
  SPI37007300             1.00   0.00  0.00  0.00  1.00  0.00  0.00  0.00  0.00  0.00
  SPI37007400             1.00   0.00  0.00  0.00  1.00  0.00  0.00  0.00  0.00  0.00
  SPI37007500             1.00   0.00  0.00  0.00  1.00  0.00  0.00  0.00  0.89  0.00
  SPI37007600             1.00   0.00  0.00  0.00  1.00  0.00  0.00  0.00  0.00  0.00
  
  
  *************************
  Conduit Surcharge Summary
  *************************
  
  ----------------------------------------------------------------------------
                                                           Hours        Hours 
                         --------- Hours Full --------   Above Full   Capacity
  Conduit                Both Ends  Upstream  Dnstream   Normal Flow   Limited
  ----------------------------------------------------------------------------
  CDT-310                    30.00     30.00     30.00     19.17        15.80
  CDT-310-1                  30.00     30.00     30.00     18.22        15.65
  CDT-312                     0.02      0.04     14.67      0.10         0.01
  CDT-31A1D                  29.98     29.98     30.00      2.21         9.24
  CDT-31A2D                  28.74     28.77     29.23      4.52        14.40
  CDT-31A3D                  29.54     29.61     29.70      2.79        14.98
  CDT-31A4D                  30.00     30.00     30.00      0.10        14.80
  CDT-31A5D                   0.06      0.10      0.06      0.29         0.06
  CDT-31F1D                   0.09      0.13      0.20      0.15         0.08
  CDT-31F2                   10.75     11.05     11.68      4.43         6.31
  CDT-31F21D                  0.85      0.91      0.96      1.50         0.38
  CDT-31F22                   6.81      6.90      7.08      0.73         2.44
  CDT-331AD                  30.00     30.00     30.00      3.69        10.17
  CDT-35                     30.00     30.00     30.00     25.66        16.91
  EAC_SGP30100003             0.01      0.01      0.01      0.01         0.01
  EAC_SGP30100006             0.01      0.02      0.01      0.02         0.01
  EAC_SGP30100013             0.11      0.11      0.19      0.01         0.01
  EAC_SGP30100014             0.07      0.07      0.11      0.01         0.01
  EAC_SGP30100015             0.01      0.01      0.07      0.01         0.01
  EAC_SGP30100016             0.01      0.01      0.01      0.01         0.01
  EAC_SGP30100019             0.01      0.01      0.02      0.01         0.01
  EAC_SPG30100001             0.28      0.30      0.29      0.07         0.04
  EAC_SPG30100002             0.01      0.01      0.32      0.01         0.01
  EAC_SPG30100004             0.01      0.02      0.01      0.04         0.01
  EAC_SPG30100005             0.01      0.01      0.02      0.02         0.01
  EAC_SPG30100011             0.24      0.25      0.30      0.01         0.01
  EAC_SPG30100012             0.18      0.19      0.25      0.01         0.02
  SGP30116140                 0.01      0.01      0.07      0.01         0.01
  SGP30116150                 0.01      0.01      0.01      0.01         0.01
  SGP30116170                 0.01      0.01      0.01      0.01         0.01
  SGP30118160                 0.01      0.02      0.01      0.02         0.01
  SGP30118300                 0.01      0.05      0.01      0.14         0.01
  SGP30118350                 0.05      0.08      0.05      0.13         0.05
  SGP30118360                 0.08      0.10      0.08      0.11         0.08
  SGP30118370                 0.06      0.06      0.10      0.01         0.01
  SGP30118380                 0.02      0.02      0.06      0.01         0.01
  SGP30118390                 0.06      0.06      0.10      0.01         0.01
  SGP30118400                 0.03      0.03      0.06      0.01         0.01
  SGP30190400                 0.01      0.01      0.01      0.01         0.01
  SGP30190600                 0.01      0.01      0.01      0.01         0.01
  SGP30190700                 0.01      0.01      0.01      0.02         0.01
  SGP30190800                 0.01      0.01      0.04      0.03         0.01
  SGP301E0007                 0.01      0.01      0.02      0.01         0.01
  SGP301E0020                 0.01      0.01      0.01      0.01         0.01
  SGP37001700                 0.01      0.01      0.13      0.01         0.01
  SGP37001800                 0.01      0.13      0.01      0.19         0.01
  SGP37001900                 0.01      0.01      0.15      0.01         0.01
  SGP37002000                 0.01      0.15      0.01      5.94         0.01
  SPI30100200                 0.02      0.03      0.02      0.39         0.02
  SPI30100300                 0.03      0.06      0.03      0.34         0.02
  SPI3010031A                25.79     26.33     26.35      4.88         9.37
  SPI30100400                 0.06      0.06      0.06      0.24         0.05
  SPI30100600                 0.13      0.13      0.13      0.01         0.02
  SPI30100700                 0.06      0.14      0.06      0.04         0.06
  SPI30100800                 0.13      0.13      0.14      0.11         0.02
  SPI30101000                 0.88      1.10      3.07      1.41         0.84
  SPI30101300                 0.04      0.04      0.05      6.82         0.02
  SPI30101500                 0.03      0.03      0.03     30.00         0.02
  SPI30101600                 0.03      0.05      0.03     29.13         0.02
  SPI30101700                 0.03      0.15      0.04     20.02         0.02
  SPI30101800                 0.13      0.43      0.15      0.91         0.08
  SPI30101900                 0.41      0.47      0.43      0.79         0.33
  SPI30102000                 0.45      0.53      0.47      1.09         0.36
  SPI30102600                26.23     26.95     28.27     23.50        14.57
  SPI30102700                26.06     26.37     26.67      3.30         8.33
  SPI30102800                26.13     26.67     26.95     13.98        13.69
  SPI30102900                25.98     26.35     26.67      5.33         9.02
  SPI30103100                 0.04      0.05     27.49      3.79         0.01
  SPI301031A1                30.00     30.00     30.00      4.46        11.14
  SPI301031A2                27.46     27.49     29.23      3.69         0.18
  SPI301031A3                29.60     29.66     29.70      2.43         0.11
  SPI301031A4                29.90     29.90     29.92      0.13        13.85
  SPI301031A5                 0.02      0.06      0.03      0.09         0.02
  SPI301031F2                 1.04      3.40      1.10      3.42         0.96
  SPI30104500                 2.63      3.07      2.76      2.28         2.02
  SPI30104600                 2.56      2.76      2.72      3.24         2.16
  SPI30104700                 2.60      2.72      2.65      3.57         2.14
  SPI30109800                30.00     30.00     30.00     14.13        14.66
  SPI30122000                14.65     14.67     29.92      0.08         0.01
  SPI30123000                29.66     30.00     29.66      2.44         0.24
  SPI30123100                29.98     30.00     29.98      2.38         0.22
  SPI30123200                 2.48      2.48     30.00      2.38         0.07
  SPI30131F21                 0.11      0.39      0.14      0.36         0.02
  SPI30131F22                 0.51      0.55      0.53      0.70         0.41
  SPI30191000                 0.01      0.01     30.00      0.01         0.01
  SPI30191200                27.84     27.94     29.15     10.10        14.77
  SPI30191300                29.13     29.15     29.84      8.90        13.68
  SPI30191600                27.71     27.78     27.94      5.66        12.74
  SPI30191800                 2.32      2.32      2.48      2.33         0.05
  SPI30192000                 0.01      0.01     30.00      2.34         0.01
  SPI30192100                29.85     29.85     30.00     26.46        15.90
  SPI30192200                27.25     27.82     28.44      7.24        12.63
  SPI30192300                28.44     28.45     29.98     25.11        15.41
  SPI30192500                29.03     29.31     29.57     25.51        15.21
  SPI30192600                27.83     28.28     29.07     13.87        13.75
  SPI30192800                30.00     30.00     30.00      1.27         8.74
  SPI30193100                29.98     29.98     30.00      0.95        10.14
  SPI30193200                30.00     30.00     30.00      2.51         8.52
  SPI30193300                30.00     30.00     30.00      3.76         9.21
  SPI301E5001                27.07     27.23     28.92     21.71        15.37
  SPI301E5002                 0.02      0.02      0.02      0.18         0.02
  SPI301E5003                30.00     30.00     30.00      0.01         0.01
  SPI301E5004                30.00     30.00     30.00     24.48        15.56
  SPI301E5005                30.00     30.00     30.00     27.25        16.22
  SPI301E5006                29.99     30.00     30.00     25.00        15.81
  SPI301E5007                30.00     30.00     30.00     24.37        15.81
  SPI301E5008                29.99     29.99     30.00     13.18        14.62
  SPI301E5009                29.98     29.99     29.99     25.41        15.67
  SPI301E5010                29.98     29.99     29.99     24.54        15.65
  SPI301E5011                29.98     29.99     29.99     25.63        15.68
  SPI301E5012                29.95     29.96     29.99     21.16        15.78
  SPI301E5013                29.82     29.84     29.96     15.75        15.34
  SPI301E5014                29.70     29.79     29.84     20.33        15.66
  SPI301E5015                29.47     29.60     29.79     22.55        15.70
  SPI301E5016                29.98     29.98     30.00     13.76        14.70
  SPI301E5017                29.92     29.92     30.00     22.68        14.74
  SPI301E5018                29.52     29.57     29.92     26.69        14.81
  SPI301E5019                28.53     29.07     29.31     25.09        15.22
  SPI301E5020                 0.41      0.45      2.65      0.37         0.02
  SPI301E5021                28.75     28.93     29.60     21.09        15.50
  SPI37006500                 0.02      0.06      0.02      0.13         0.02
  SPI37006600                 0.02      0.02      0.04      0.02         0.02
  SPI37006700                 0.03      0.04      0.03      0.03         0.03
  SPI37006800                 0.02      0.03      0.02      0.10         0.02
  SPI37006900                 0.02      0.02      0.02      0.15         0.02
  SPI37007000                 0.02      0.02      0.02      0.17         0.02
  SPI37007100                 0.02      0.37      0.02      7.33         0.02
  SPI37007200                 0.37      2.65      0.37      7.26         0.36
  SPI37007300                30.00     30.00     30.00      2.76         0.02
  SPI37007400                30.00     30.00     30.00      0.01         0.01
  SPI37007500                 0.02      0.02      0.02      0.12         0.02
  SPI37007600                29.10     29.10     30.00      0.01         0.01
  
  
  ***************
  Pumping Summary
  ***************
  
  ---------------------------------------------------------------------------------------------------------
                                                  Min       Avg       Max     Total     Power    % Time Off
                        Percent   Number of      Flow      Flow      Flow    Volume     Usage    Pump Curve
  Pump                 Utilized   Start-Ups       GPM       GPM       GPM  10^6 gal     Kw-hr    Low   High
  ---------------------------------------------------------------------------------------------------------
  PUMP-11                  9.05          92      0.00    881.92    971.15     0.144     19.22    0.0    0.0
  PUMP-31A                 8.35         162      0.00    950.20   1598.71     0.143     48.56    0.0    0.0
  PUMP-31A1                6.76          59      0.00    737.08    750.00     0.090     19.02    0.0   78.5
  PUMP-31A2               11.55          89      0.00    163.06    249.05     0.034      4.63    0.0    0.0
  PUMP-31A3                7.95          38      0.00    352.67    436.18     0.051      6.86    0.0    0.0
  PUMP-31A4                0.26           4      0.00    188.91    351.55     0.001      0.11    0.0    0.0
  PUMP-31A5                0.31           5      0.00    286.30    525.00     0.002      0.16    0.0    4.5
  PUMP-31F1                0.45          11      0.00    439.18    525.00     0.004      0.34    0.0    7.9
  PUMP-31F2               11.36         111      0.00    379.45    525.00     0.078      6.12    0.0    0.7
  PUMP-31F21               1.22          43      0.00    435.11    525.00     0.010      0.59    0.0    5.2
  PUMP-31F22               1.68          67      0.00    748.22    750.00     0.023      1.57    0.0   98.8
  

  Analysis begun on:  Tue Jun 23 20:45:19 2026
  Analysis ended on:  Tue Jun 23 20:45:31 2026
  Total elapsed time: 00:00:12