
  EPA STORM WATER MANAGEMENT MODEL - VERSION 5.2 (Build 5.2.4)
  ------------------------------------------------------------

                         Extranwithsurchargein2footcircularconduits 
                         SWMMCRADAExample1 
  WARNING 04: minimum elevation drop used for Conduit pipe1
  WARNING 04: minimum elevation drop used for Conduit pipe2
  WARNING 04: minimum elevation drop used for Conduit pipe3
  WARNING 04: minimum elevation drop used for Conduit pipe5
  WARNING 04: minimum elevation drop used for Conduit pipe6
  WARNING 04: minimum elevation drop used for Conduit pipe8
  WARNING 04: minimum elevation drop used for Conduit pipe9
  WARNING 04: minimum elevation drop used for Conduit outlet
  
  ****************
  Analysis Options
  ****************
  Flow Units ............... CFS
  Process Models:
    Rainfall/Runoff ........ NO
    RDII ................... NO
    Snowmelt ............... NO
    Groundwater ............ NO
    Flow Routing ........... YES
    Ponding Allowed ........ NO
    Water Quality .......... NO
  Flow Routing Method ...... DYNWAVE
  Surcharge Method ......... EXTRAN
  Starting Date ............ 02/22/2002 00:00:00
  Ending Date .............. 02/22/2002 05:00:00
  Antecedent Dry Days ...... 0.0
  Report Time Step ......... 00:00:10
  Routing Time Step ........ 1.00 sec
  Variable Time Step ....... YES
  Maximum Trials ........... 8
  Number of Threads ........ 1
  Head Tolerance ........... 0.005000 ft
  
  
  **************************        Volume        Volume
  Flow Routing Continuity        acre-feet      10^6 gal
  **************************     ---------     ---------
  Dry Weather Inflow .......         0.000         0.000
  Wet Weather Inflow .......         0.000         0.000
  Groundwater Inflow .......         0.000         0.000
  RDII Inflow ..............         0.000         0.000
  External Inflow ..........       495.850       161.580
  External Outflow .........       484.776       157.971
  Flooding Loss ............         0.000         0.000
  Evaporation Loss .........         0.000         0.000
  Exfiltration Loss ........         0.000         0.000
  Initial Stored Volume ....         0.000         0.000
  Final Stored Volume ......        10.475         3.413
  Continuity Error (%) .....         0.121
  
  
  ***************************
  Time-Step Critical Elements
  ***************************
  None
  
  
  ********************************
  Highest Flow Instability Indexes
  ********************************
  All links are stable.
  
  
  *********************************
  Most Frequent Nonconverging Nodes
  *********************************
  Node Outlet (19.23%)
  Node mid6 (16.23%)
  Node mid4 (11.66%)
  Node mid5 (11.12%)
  Node mid2 (0.07%)
  
  
  *************************
  Routing Time Step Summary
  *************************
  Minimum Time Step           :     0.50 sec
  Average Time Step           :     1.00 sec
  Maximum Time Step           :     1.00 sec
  % of Time in Steady State   :     0.00
  Average Iterations per Step :     4.44
  % of Steps Not Converging   :    19.23
  Time Step Frequencies       :
      1.000 -  0.871 sec      :    99.99 %
      0.871 -  0.758 sec      :     0.00 %
      0.758 -  0.660 sec      :     0.00 %
      0.660 -  0.574 sec      :     0.00 %
      0.574 -  0.500 sec      :     0.01 %
  
  
  ******************
  Node Depth Summary
  ******************
  
  ---------------------------------------------------------------------------------
                                 Average  Maximum  Maximum  Time of Max    Reported
                                   Depth    Depth      HGL   Occurrence   Max Depth
  Node                 Type         Feet     Feet     Feet  days hr:min        Feet
  ---------------------------------------------------------------------------------
  Inflow               JUNCTION     6.28    10.71    90.71     0  00:21       10.66
  mid1                 JUNCTION     5.98    10.07    90.07     0  00:21        9.96
  mid2                 JUNCTION     5.73     9.71    89.71     0  00:22        9.69
  mid3                 JUNCTION     5.26     9.27    89.27     0  00:22        9.13
  mid4                 JUNCTION    73.25    79.43    89.43     0  00:22       79.30
  mid5                 JUNCTION    73.25    79.38    89.38     0  00:22       79.30
  mid6                 JUNCTION    73.24    79.34    89.34     0  00:22       79.29
  mid7                 JUNCTION     5.23     9.14    89.14     0  00:23        9.07
  mid8                 JUNCTION     4.98     8.66    88.66     0  00:23        8.53
  mid9                 JUNCTION     4.65     8.14    88.14     0  00:21        8.14
  Outlet               OUTFALL      4.23     7.59    87.59     0  00:21        7.59
  
  
  *******************
  Node Inflow Summary
  *******************
  
  -------------------------------------------------------------------------------------------------
                                  Maximum  Maximum                  Lateral       Total        Flow
                                  Lateral    Total  Time of Max      Inflow      Inflow     Balance
                                   Inflow   Inflow   Occurrence      Volume      Volume       Error
  Node                 Type           CFS      CFS  days hr:min    10^6 gal    10^6 gal     Percent
  -------------------------------------------------------------------------------------------------
  Inflow               JUNCTION   2000.00  2000.00     0  00:15         162         162      -0.001
  mid1                 JUNCTION      0.00  2274.01     0  00:16           0         162       0.010
  mid2                 JUNCTION      0.00  2306.27     0  00:26           0         162       0.005
  mid3                 JUNCTION      0.00  2375.20     0  00:16           0         162       0.005
  mid4                 JUNCTION      0.00  2358.51     0  00:30           0         162       0.730
  mid5                 JUNCTION      0.00  2358.14     0  00:30           0         160       0.759
  mid6                 JUNCTION      0.00  2358.00     0  00:30           0         159       0.755
  mid7                 JUNCTION      0.00  2356.44     0  00:30           0         158      -0.005
  mid8                 JUNCTION      0.00  2364.61     0  00:30           0         158       0.007
  mid9                 JUNCTION      0.00  2318.62     0  00:21           0         158       0.000
  Outlet               OUTFALL       0.00  2304.07     0  00:21           0         158       0.000
  
  
  **********************
  Node Surcharge Summary
  **********************
  
  Surcharging occurs when water rises above the top of the highest conduit.
  ---------------------------------------------------------------------
                                               Max. Height   Min. Depth
                                   Hours       Above Crown    Below Rim
  Node                 Type      Surcharged           Feet         Feet
  ---------------------------------------------------------------------
  mid4                 JUNCTION        4.81         35.427       40.573
  mid5                 JUNCTION        4.81         35.383       40.617
  mid6                 JUNCTION        4.81         35.339       40.661
  
  
  *********************
  Node Flooding Summary
  *********************
  
  No nodes were flooded.
  
  
  ***********************
  Outfall Loading Summary
  ***********************
  
  -----------------------------------------------------------
                         Flow       Avg       Max       Total
                         Freq      Flow      Flow      Volume
  Outfall Node           Pcnt       CFS       CFS    10^6 gal
  -----------------------------------------------------------
  Outlet                96.16   1220.04   2304.07     157.960
  -----------------------------------------------------------
  System                96.16   1220.04   2304.07     157.960
  
  
  ********************
  Link Flow Summary
  ********************
  
  -----------------------------------------------------------------------------
                                 Maximum  Time of Max   Maximum    Max/    Max/
                                  |Flow|   Occurrence   |Veloc|    Full    Full
  Link                 Type          CFS  days hr:min    ft/sec    Flow   Depth
  -----------------------------------------------------------------------------
  pipe1                CONDUIT   2274.01     0  00:16      9.92    0.71    0.23
  pipe2                CONDUIT   2306.27     0  00:26     10.45    0.72    0.22
  pipe3                CONDUIT   2375.20     0  00:16     16.02    0.74    0.21
  pipe4                CONDUIT   2358.51     0  00:30     15.52    0.00    0.61
  pipe5                CONDUIT   2358.14     0  00:30      5.50    0.73    1.00
  pipe6                CONDUIT   2358.00     0  00:30      5.47    0.73    1.00
  pipe7                CONDUIT   2356.44     0  00:30      2.47    0.00    0.60
  pipe8                CONDUIT   2364.61     0  00:30     14.38    0.74    0.20
  pipe9                CONDUIT   2318.62     0  00:21     13.75    0.72    0.19
  outlet               CONDUIT   2304.07     0  00:21     12.51    0.72    0.18
  
  
  ***************************
  Flow Classification Summary
  ***************************
  
  -------------------------------------------------------------------------------------
                      Adjusted    ---------- Fraction of Time in Flow Class ---------- 
                       /Actual         Up    Down  Sub   Sup   Up    Down  Norm  Inlet 
  Conduit               Length    Dry  Dry   Dry   Crit  Crit  Crit  Crit  Ltd   Ctrl  
  -------------------------------------------------------------------------------------
  pipe1                   1.00   0.00  0.00  0.00  1.00  0.00  0.00  0.00  0.00  0.00
  pipe2                   1.00   0.00  0.00  0.00  1.00  0.00  0.00  0.00  0.00  0.00
  pipe3                   1.00   0.00  0.00  0.00  0.96  0.04  0.00  0.00  0.00  0.00
  pipe4                   1.00   0.00  0.00  0.00  0.99  0.01  0.00  0.00  0.04  0.00
  pipe5                   1.00   0.00  0.00  0.00  1.00  0.00  0.00  0.00  0.00  0.00
  pipe6                   1.00   0.00  0.00  0.00  1.00  0.00  0.00  0.00  0.00  0.00
  pipe7                   1.00   0.00  0.04  0.00  0.96  0.00  0.00  0.00  0.00  0.00
  pipe8                   1.00   0.04  0.00  0.00  0.96  0.00  0.00  0.00  0.00  0.00
  pipe9                   1.00   0.04  0.00  0.00  0.96  0.00  0.00  0.00  0.00  0.00
  outlet                  1.00   0.04  0.00  0.00  0.92  0.04  0.00  0.00  0.00  0.00
  
  
  *************************
  Conduit Surcharge Summary
  *************************
  
  ----------------------------------------------------------------------------
                                                           Hours        Hours 
                         --------- Hours Full --------   Above Full   Capacity
  Conduit                Both Ends  Upstream  Dnstream   Normal Flow   Limited
  ----------------------------------------------------------------------------
  pipe4                       0.01      0.01      4.81      0.01         0.01
  pipe5                       4.81      4.81      4.81      0.01         1.63
  pipe6                       4.81      4.81      4.81      0.01         1.73
  pipe7                       0.01      0.01      4.81      0.01         0.01
  

  Analysis begun on:  Tue Jun 23 20:45:36 2026
  Analysis ended on:  Tue Jun 23 20:45:36 2026
  Total elapsed time: < 1 sec