
  EPA STORM WATER MANAGEMENT MODEL - VERSION 5.2 (Build 5.2.4)
  ------------------------------------------------------------

  
  ERROR 209: undefined object WOODLANDHILLS at line 555 of [INFLOW] section:
  WOODLANDHILLS	FLOW	""	FLOW  1.0	1.000000


  Analysis begun on:  Tue Jun 23 20:45:50 2026
  Analysis ended on:  Tue Jun 23 20:45:50 2026
  Total elapsed time: < 1 sec