
  EPA STORM WATER MANAGEMENT MODEL - VERSION 5.2 (Build 5.2.4)
  ------------------------------------------------------------

  WARNING 02: maximum depth increased for Node 81009
  WARNING 02: maximum depth increased for Node 81009a
  WARNING 02: maximum depth increased for Node 81009b
  WARNING 02: maximum depth increased for Node 81009c
  WARNING 02: maximum depth increased for Node 81009d
  WARNING 02: maximum depth increased for Node 81009e
  
  *************
  Element Count
  *************
  Number of rain gages ...... 0
  Number of subcatchments ... 0
  Number of nodes ........... 61
  Number of links ........... 60
  Number of pollutants ...... 0
  Number of land uses ....... 0
  
  
  ************
  Node Summary
  ************
                                           Invert      Max.    Ponded    External
  Name                 Type                 Elev.     Depth      Area    Inflow  
  -------------------------------------------------------------------------------
  10309                JUNCTION             -1.00      9.40       0.0
  10309a               JUNCTION            101.60      9.40       0.0
  10309b               JUNCTION            101.60      9.40       0.0
  10309c               JUNCTION            101.60      9.40       0.0
  10309d               JUNCTION            101.60      9.40       0.0
  10309e               JUNCTION            101.60      9.40       0.0
  15009                JUNCTION            111.50     13.50       0.0
  15009a               JUNCTION            111.50     13.50       0.0
  15009b               JUNCTION            111.50     13.50       0.0
  15009c               JUNCTION            111.50     13.50       0.0
  15009d               JUNCTION            111.50     13.50       0.0
  15009e               JUNCTION            121.00     13.50       0.0
  16009                JUNCTION              5.00     18.00       0.0
  16009a               JUNCTION            102.00     18.00       0.0
  16009b               JUNCTION            102.00     18.00       0.0
  16009c               JUNCTION            102.00     18.00       0.0
  16009d               JUNCTION            102.00     18.00       0.0
  16009e               JUNCTION            102.00     18.00       0.0
  16109                JUNCTION            102.80     22.20       0.0    Yes
  16109a               JUNCTION            102.80     22.20       0.0
  16109b               JUNCTION            102.80     22.20       0.0
  16109c               JUNCTION            102.80     22.20       0.0
  16109d               JUNCTION            102.80     22.20       0.0
  16109e               JUNCTION            102.80     22.20       0.0
  80408                JUNCTION            120.00     13.40       0.0    Yes
  80408a               JUNCTION            124.60     13.40       0.0    Yes
  80408b               JUNCTION            124.60     13.40       0.0    Yes
  80408c               JUNCTION            124.60     13.40       0.0    Yes
  80408d               JUNCTION            124.60     13.40       0.0    Yes
  80408e               JUNCTION            124.60     13.40       0.0    Yes
  80608                JUNCTION            118.30     16.70       0.0
  80608a               JUNCTION            118.30     16.70       0.0
  80608b               JUNCTION            118.30     16.70       0.0
  80608c               JUNCTION            118.30     16.70       0.0
  80608d               JUNCTION            118.30     16.70       0.0
  80608e               JUNCTION            118.30     16.70       0.0
  81009                JUNCTION            128.20      9.00       0.0    Yes
  81009a               JUNCTION            128.20      9.00       0.0    Yes
  81009b               JUNCTION            128.20      9.00       0.0    Yes
  81009c               JUNCTION            128.20      9.00       0.0    Yes
  81009d               JUNCTION            128.20      9.00       0.0    Yes
  81009e               JUNCTION            128.20      9.00       0.0    Yes
  81309                JUNCTION            117.50     12.50       0.0
  81309a               JUNCTION            117.50     12.50       0.0
  81309b               JUNCTION            117.50     12.50       0.0
  81309c               JUNCTION            117.50     12.50       0.0
  81309d               JUNCTION            117.50     12.50       0.0
  81309e               JUNCTION            117.50     12.50       0.0
  82308d               JUNCTION            112.30     42.70       0.0
  82309                JUNCTION            112.30     42.70       0.0    Yes
  82309a               JUNCTION            112.30     42.70       0.0    Yes
  82309b               JUNCTION            112.30     42.70       0.0    Yes
  82309c               JUNCTION            112.30     42.70       0.0    Yes
  WetWell              JUNCTION            112.30     21.00       0.0    Yes
  10208                OUTFALL             -10.00      9.00       0.0
  10208b               OUTFALL              89.90      9.00       0.0
  10208c               OUTFALL              89.90      9.00       0.0
  10208d               OUTFALL              89.90      9.00       0.0
  10208e               OUTFALL              89.90      9.00       0.0
  10208a               OUTFALL              89.90      9.00       0.0
  82309d               STORAGE             112.30     42.70       0.0    Yes
  
  
  ************
  Link Summary
  ************
  Name             From Node        To Node          Type            Length    %Slope Roughness
  ---------------------------------------------------------------------------------------------
  1030e            10309e           10208e           CONDUIT         4500.0    0.2600    0.0300
  UsesTransects    10309            10208            CONDUIT         4500.0    0.2000    0.0300
  1030a            10309a           10208a           CONDUIT         4500.0    0.2600    0.0300
  1030b            10309b           10208b           CONDUIT         4500.0    0.2600    0.0300
  1030c            10309c           10208c           CONDUIT         4500.0    0.2600    0.0300
  1030d            10309d           10208d           CONDUIT         4500.0    0.2600    0.0300
  1570             15009            16009            CONDUIT         5000.0    2.1305    0.0300
  1570a            15009a           16009a           CONDUIT         5000.0    0.1900    0.0300
  1570b            15009b           16009b           CONDUIT         5000.0    0.1900    0.0300
  1570c            15009c           16009c           CONDUIT          100.0    9.5432    0.0300
  1570d            15009d           16009d           CONDUIT         5000.0    0.1900    0.0300
  1570e            15009e           16009e           CONDUIT         5000.0    0.3800    0.0300
  1600             16009            16109            CONDUIT          500.0  -19.9453    0.0300
  1600a            16009a           16109a           CONDUIT          500.0   -0.1600    0.0300
  1600b            16009b           16109b           CONDUIT          500.0   -0.1600    0.0300
  1600c            16009c           16109c           CONDUIT          500.0   -0.1600    0.0300
  1600d            16009d           16109d           CONDUIT          500.0   -0.1600    0.0300
  1600e            16009e           16109e           CONDUIT          500.0   -0.1600    0.0300
  1602             82309            16109            CONDUIT         5000.0    0.1900    0.0300
  1602a            82309a           16109a           CONDUIT         5000.0    0.1900    0.0300
  1602b            82309b           16109b           CONDUIT         5000.0    0.1900    0.0300
  1602c            82309c           16109c           CONDUIT         5000.0    0.1900    0.0300
  1602d            82309d           16109d           CONDUIT         5000.0    0.1900    0.0300
  1602e            WetWell          16109e           CONDUIT         5000.0    0.1900    0.0300
  1630             16009            10309            CONDUIT          300.0    2.0004    0.0300
  1630a            16009a           10309a           CONDUIT          300.0    0.1333    0.0300
  1630b            16009b           10309b           CONDUIT          300.0    0.1333    0.0300
  1630c            16009c           10309c           CONDUIT          300.0    0.1333    0.0300
  1630d            16009d           10309d           CONDUIT          300.0    0.1333    0.0300
  1630e            16009e           10309e           CONDUIT          300.0    0.1333    0.0300
  8040             80408            80608            CONDUIT         1800.0    0.0944    0.0300
  8040a            80408a           80608a           CONDUIT         1800.0    0.3500    0.0300
  8040b            80408b           80608b           CONDUIT         1800.0    0.3500    0.0300
  8040c            80408c           80608c           CONDUIT         1800.0    0.3500    0.0300
  8040d            80408d           80608d           CONDUIT         1800.0    0.3500    0.0300
  8040e            80408e           80608e           CONDUIT         1800.0    0.3500    0.0300
  8060             80608            82309            CONDUIT         2075.0    0.1831    0.0300
  8060a            80608a           82309a           CONDUIT         2075.0    0.1831    0.0300
  8060b            80608b           82309b           CONDUIT         2075.0    0.1831    0.0300
  8060c            80608c           82309c           CONDUIT         2075.0    0.1831    0.0300
  8060d            80608d           82309d           CONDUIT         2075.0    0.1831    0.0300
  8060e            80608e           WetWell          CONDUIT         2075.0    0.1831    0.0300
  8100             81009            81309            CONDUIT         5100.0    0.2098    0.0300
  8100a            81009a           81309a           CONDUIT         5100.0    0.2098    0.0300
  8100b            81009b           81309b           CONDUIT         5100.0    0.2098    0.0300
  8100c            81009c           81309c           CONDUIT         5100.0    0.2098    0.0300
  8100d            81009d           81309d           CONDUIT         5100.0    0.2098    0.0300
  8100e            81009e           81309e           CONDUIT         5100.0    0.2098    0.0300
  8130             81309            15009            CONDUIT         3500.0    0.1714    0.0300
  8130a            81309a           15009a           CONDUIT         3500.0    0.1714    0.0300
  8130b            81309b           15009b           CONDUIT         3500.0    0.1714    0.0300
  8130c            81309c           15009c           CONDUIT         3500.0    0.1714    0.0300
  8130d            81309d           15009d           CONDUIT         3500.0    0.1714    0.0300
  8130e            81309e           15009e           CONDUIT         3500.0   -0.1000    0.0300
  Pump1            WetWell          15009e           TYPE3 PUMP  
  Pump2            WetWell          15009e           TYPE3 PUMP  
  Pump3            WetWell          15009e           TYPE3 PUMP  
  OR1@82309d-82308d 82309d           82308d           ORIFICE     
  OR1@82309b-15009b 82309b           15009b           ORIFICE     
  WEIR1@82309c-15009c 82309c           15009c           WEIR        
  
  
  *********************
  Cross Section Summary
  *********************
                                        Full     Full     Hyd.     Max.   No. of     Full
  Conduit          Shape               Depth     Area     Rad.    Width  Barrels     Flow
  ---------------------------------------------------------------------------------------
  1030e            NegativeTransectElevations     9.00  1050.00     4.74   300.00        1  7482.12
  UsesTransects    NegativeTransectElevations     9.00  1050.00     4.74   300.00        1  6562.24
  1030a            NegativeTransectElevations     9.00  1050.00     4.74   300.00        1  7482.12
  1030b            NegativeTransectElevations     9.00  1050.00     4.74   300.00        1  7482.12
  1030c            NegativeTransectElevations     9.00  1050.00     4.74   300.00        1  7482.12
  1030d            NegativeTransectElevations     9.00  1050.00     4.74   300.00        1  7482.12
  1570             NegativeTransectElevations     9.00  1050.00     4.74   300.00        1 21417.86
  1570a            NegativeTransectElevations     9.00  1050.00     4.74   300.00        1  6396.08
  1570b            NegativeTransectElevations     9.00  1050.00     4.74   300.00        1  6396.08
  1570c            NegativeTransectElevations     9.00  1050.00     4.74   300.00        1 45329.73
  1570d            NegativeTransectElevations     9.00  1050.00     4.74   300.00        1  6396.08
  1570e            NegativeTransectElevations     9.00  1050.00     4.74   300.00        1  9045.45
  1600             NegativeTransectElevations     9.00  1050.00     4.74   300.00        1 65532.53
  1600a            NegativeTransectElevations     9.00  1050.00     4.74   300.00        1  5869.45
  1600b            NegativeTransectElevations     9.00  1050.00     4.74   300.00        1  5869.45
  1600c            NegativeTransectElevations     9.00  1050.00     4.74   300.00        1  5869.45
  1600d            NegativeTransectElevations     9.00  1050.00     4.74   300.00        1  5869.45
  1600e            NegativeTransectElevations     9.00  1050.00     4.74   300.00        1  5869.45
  1602             NegativeTransectElevations     9.00  1050.00     4.74   300.00        1  6396.08
  1602a            NegativeTransectElevations     9.00  1050.00     4.74   300.00        1  6396.08
  1602b            NegativeTransectElevations     9.00  1050.00     4.74   300.00        1  6396.08
  1602c            NegativeTransectElevations     9.00  1050.00     4.74   300.00        1  6396.08
  1602d            NegativeTransectElevations     9.00  1050.00     4.74   300.00        1  6396.08
  1602e            NegativeTransectElevations     9.00  1050.00     4.74   300.00        1  6396.08
  1630             NegativeTransectElevations     9.00  1050.00     4.74   300.00        1 20753.69
  1630a            NegativeTransectElevations     9.00  1050.00     4.74   300.00        1  5358.05
  1630b            NegativeTransectElevations     9.00  1050.00     4.74   300.00        1  5358.05
  1630c            NegativeTransectElevations     9.00  1050.00     4.74   300.00        1  5358.05
  1630d            NegativeTransectElevations     9.00  1050.00     4.74   300.00        1  5358.05
  1630e            NegativeTransectElevations     9.00  1050.00     4.74   300.00        1  5358.05
  8040             NegativeTransectElevations     9.00  1050.00     4.74   300.00        1  4509.47
  8040a            NegativeTransectElevations     9.00  1050.00     4.74   300.00        1  8681.05
  8040b            NegativeTransectElevations     9.00  1050.00     4.74   300.00        1  8681.05
  8040c            NegativeTransectElevations     9.00  1050.00     4.74   300.00        1  8681.05
  8040d            NegativeTransectElevations     9.00  1050.00     4.74   300.00        1  8681.05
  8040e            NegativeTransectElevations     9.00  1050.00     4.74   300.00        1  8681.05
  8060             NegativeTransectElevations     9.00  1050.00     4.74   300.00        1  6279.43
  8060a            NegativeTransectElevations     9.00  1050.00     4.74   300.00        1  6279.43
  8060b            NegativeTransectElevations     9.00  1050.00     4.74   300.00        1  6279.43
  8060c            NegativeTransectElevations     9.00  1050.00     4.74   300.00        1  6279.43
  8060d            NegativeTransectElevations     9.00  1050.00     4.74   300.00        1  6279.43
  8060e            NegativeTransectElevations     9.00  1050.00     4.74   300.00        1  6279.43
  8100             NegativeTransectElevations     9.00  1050.00     4.74   300.00        1  6721.16
  8100a            NegativeTransectElevations     9.00  1050.00     4.74   300.00        1  6721.16
  8100b            NegativeTransectElevations     9.00  1050.00     4.74   300.00        1  6721.16
  8100c            NegativeTransectElevations     9.00  1050.00     4.74   300.00        1  6721.16
  8100d            NegativeTransectElevations     9.00  1050.00     4.74   300.00        1  6721.16
  8100e            NegativeTransectElevations     9.00  1050.00     4.74   300.00        1  6721.16
  8130             NegativeTransectElevations     9.00  1050.00     4.74   300.00        1  6075.46
  8130a            NegativeTransectElevations     9.00  1050.00     4.74   300.00        1  6075.46
  8130b            NegativeTransectElevations     9.00  1050.00     4.74   300.00        1  6075.46
  8130c            NegativeTransectElevations     9.00  1050.00     4.74   300.00        1  6075.46
  8130d            NegativeTransectElevations     9.00  1050.00     4.74   300.00        1  6075.46
  8130e            NegativeTransectElevations     9.00  1050.00     4.74   300.00        1  4640.20
  
  
  ****************
  Transect Summary
  ****************

  Transect NegativeTransectElevations
  Area:  
              0.0003     0.0012     0.0028     0.0049     0.0077 
              0.0111     0.0151     0.0197     0.0250     0.0309 
              0.0373     0.0444     0.0521     0.0605     0.0694 
              0.0790     0.0892     0.1000     0.1114     0.1234 
              0.1361     0.1493     0.1632     0.1777     0.1929 
              0.2086     0.2249     0.2419     0.2602     0.2800 
              0.3013     0.3242     0.3487     0.3746     0.4021 
              0.4312     0.4618     0.4939     0.5276     0.5629 
              0.5996     0.6379     0.6778     0.7192     0.7621 
              0.8066     0.8527     0.9002     0.9493     1.0000 
  Hrad:  
              0.0188     0.0376     0.0565     0.0753     0.0941 
              0.1129     0.1318     0.1506     0.1694     0.1882 
              0.2070     0.2259     0.2447     0.2635     0.2823 
              0.3011     0.3200     0.3388     0.3576     0.3764 
              0.3953     0.4141     0.4329     0.4517     0.4705 
              0.4894     0.5082     0.5311     0.5656     0.5965 
              0.6245     0.6503     0.6743     0.6968     0.7182 
              0.7387     0.7585     0.7779     0.7968     0.8155 
              0.8340     0.8525     0.8708     0.8891     0.9075 
              0.9258     0.9443     0.9628     0.9813     1.0000 
  Width: 
              0.0120     0.0240     0.0360     0.0480     0.0600 
              0.0720     0.0840     0.0960     0.1080     0.1200 
              0.1320     0.1440     0.1560     0.1680     0.1800 
              0.1920     0.2040     0.2160     0.2280     0.2400 
              0.2520     0.2640     0.2760     0.2880     0.3000 
              0.3120     0.3240     0.3400     0.3700     0.4000 
              0.4300     0.4600     0.4900     0.5200     0.5500 
              0.5800     0.6100     0.6400     0.6700     0.7000 
              0.7300     0.7600     0.7900     0.8200     0.8500 
              0.8800     0.9100     0.9400     0.9700     1.0000 
  
  
  ****************
  Analysis Options
  ****************
  Flow Units ............... CFS
  Process Models:
    Rainfall/Runoff ........ NO
    RDII ................... NO
    Snowmelt ............... NO
    Groundwater ............ NO
    Flow Routing ........... YES
    Ponding Allowed ........ YES
    Water Quality .......... NO
  Flow Routing Method ...... DYNWAVE
  Surcharge Method ......... EXTRAN
  Starting Date ............ 01/01/1988 00:00:00
  Ending Date .............. 01/01/1988 06:00:00
  Antecedent Dry Days ...... 0.0
  Report Time Step ......... 00:01:00
  Routing Time Step ........ 60.00 sec
  Variable Time Step ....... YES
  Maximum Trials ........... 8
  Number of Threads ........ 1
  Head Tolerance ........... 0.005000 ft
  
  
  **************************        Volume        Volume
  Flow Routing Continuity        acre-feet      10^6 gal
  **************************     ---------     ---------
  Dry Weather Inflow .......        19.834         6.463
  Wet Weather Inflow .......         0.000         0.000
  Groundwater Inflow .......         0.000         0.000
  RDII Inflow ..............         0.000         0.000
  External Inflow ..........       192.330        62.674
  External Outflow .........       168.755        54.991
  Flooding Loss ............         0.000         0.000
  Evaporation Loss .........         1.219         0.397
  Exfiltration Loss ........         0.000         0.000
  Initial Stored Volume ....         5.238         1.707
  Final Stored Volume ......        55.388        18.049
  Continuity Error (%) .....        -3.662
  
  
  *************************
  Highest Continuity Errors
  *************************
  Node 81309e (99.66%)
  Node 15009e (51.08%)
  Node 81309c (16.50%)
  Node 81309 (11.57%)
  Node 15009a (11.32%)
  
  
  ***************************
  Time-Step Critical Elements
  ***************************
  Link 1630a (70.56%)
  Link 1630 (12.39%)
  Link 1630c (9.72%)
  Link 1600 (1.41%)
  
  
  ********************************
  Highest Flow Instability Indexes
  ********************************
  Link OR1@82309d-82308d (39)
  Link 1602d (37)
  Link 1630a (1)
  Link 1630b (1)
  Link 8060a (1)
  
  
  *********************************
  Most Frequent Nonconverging Nodes
  *********************************
  Node 82308d (2.54%)
  Node 10208 (2.54%)
  Node 10208b (2.54%)
  Node 10208c (2.54%)
  Node 10208d (2.54%)
  
  
  *************************
  Routing Time Step Summary
  *************************
  Minimum Time Step           :     7.34 sec
  Average Time Step           :    30.42 sec
  Maximum Time Step           :    60.00 sec
  % of Time in Steady State   :     0.00
  Average Iterations per Step :     4.21
  % of Steps Not Converging   :     2.54
  Time Step Frequencies       :
     60.000 - 23.031 sec      :    99.15 %
     23.031 -  8.841 sec      :     0.71 %
      8.841 -  3.393 sec      :     0.14 %
      3.393 -  1.303 sec      :     0.00 %
      1.303 -  0.500 sec      :     0.00 %
  
  
  ******************
  Node Depth Summary
  ******************
  
  ---------------------------------------------------------------------------------
                                 Average  Maximum  Maximum  Time of Max    Reported
                                   Depth    Depth      HGL   Occurrence   Max Depth
  Node                 Type         Feet     Feet     Feet  days hr:min        Feet
  ---------------------------------------------------------------------------------
  10309                JUNCTION     2.23     3.09     2.09     0  03:17        3.09
  10309a               JUNCTION     1.53     2.33   103.93     0  03:26        2.33
  10309b               JUNCTION     1.80     2.72   104.32     0  03:24        2.72
  10309c               JUNCTION     1.96     2.72   104.32     0  03:14        2.72
  10309d               JUNCTION     1.81     2.73   104.33     0  03:26        2.73
  10309e               JUNCTION     1.28     1.94   103.54     0  03:15        1.94
  15009                JUNCTION     0.69     1.04   112.54     0  03:10        1.04
  15009a               JUNCTION     1.06     1.71   113.21     0  03:21        1.71
  15009b               JUNCTION     1.27     1.74   113.24     0  03:11        1.74
  15009c               JUNCTION     0.62     0.83   112.33     0  03:06        0.83
  15009d               JUNCTION     1.07     1.71   113.21     0  03:20        1.71
  15009e               JUNCTION     0.19     0.22   121.22     0  05:32        0.22
  16009                JUNCTION     1.19     1.60     6.60     0  03:07        1.60
  16009a               JUNCTION     1.87     2.58   104.58     0  03:16        2.58
  16009b               JUNCTION     1.82     2.59   104.59     0  03:17        2.59
  16009c               JUNCTION     1.92     2.59   104.59     0  03:08        2.59
  16009d               JUNCTION     1.83     2.60   104.60     0  03:19        2.60
  16009e               JUNCTION     1.26     1.80   103.80     0  03:08        1.80
  16109                JUNCTION     0.69     0.90   103.70     0  03:02        0.90
  16109a               JUNCTION     1.73     2.29   105.09     0  01:40        2.29
  16109b               JUNCTION     1.51     2.08   104.88     0  03:07        2.08
  16109c               JUNCTION     1.43     2.05   104.85     0  03:05        2.05
  16109d               JUNCTION     1.58     2.14   104.94     0  01:42        2.14
  16109e               JUNCTION     1.22     1.80   104.60     0  01:39        1.80
  80408                JUNCTION     1.74     2.61   122.61     0  00:29        2.60
  80408a               JUNCTION     1.34     2.15   126.75     0  00:22        2.15
  80408b               JUNCTION     0.86     1.93   126.53     0  00:27        1.93
  80408c               JUNCTION     0.86     1.93   126.53     0  00:27        1.93
  80408d               JUNCTION     0.86     1.93   126.53     0  00:27        1.93
  80408e               JUNCTION     0.55     1.19   125.79     0  00:35        1.19
  80608                JUNCTION     1.88     2.29   120.59     0  03:01        2.29
  80608a               JUNCTION     1.87     2.27   120.57     0  03:01        2.27
  80608b               JUNCTION     1.44     2.00   120.30     0  03:01        2.00
  80608c               JUNCTION     1.44     2.00   120.30     0  03:01        2.00
  80608d               JUNCTION     1.44     2.00   120.30     0  03:01        2.00
  80608e               JUNCTION     0.90     1.22   119.52     0  03:04        1.22
  81009                JUNCTION     1.19     2.11   130.31     0  00:59        2.11
  81009a               JUNCTION     1.17     2.11   130.31     0  00:59        2.11
  81009b               JUNCTION     1.19     2.15   130.35     0  01:03        2.15
  81009c               JUNCTION     1.21     2.14   130.34     0  01:02        2.14
  81009d               JUNCTION     1.17     2.11   130.31     0  00:59        2.11
  81009e               JUNCTION     1.24     2.11   130.31     0  00:59        2.11
  81309                JUNCTION     1.61     2.23   119.73     0  02:36        2.23
  81309a               JUNCTION     1.36     2.15   119.65     0  02:08        2.15
  81309b               JUNCTION     1.23     1.87   119.37     0  02:10        1.87
  81309c               JUNCTION     1.67     2.29   119.79     0  03:07        2.29
  81309d               JUNCTION     1.36     2.14   119.64     0  02:07        2.14
  81309e               JUNCTION     2.97     3.93   121.43     0  06:00        3.93
  82308d               JUNCTION     2.66     8.60   120.90     0  00:47        6.74
  82309                JUNCTION     2.57     3.26   115.56     0  03:00        3.26
  82309a               JUNCTION     1.76     2.43   114.73     0  01:07        2.43
  82309b               JUNCTION     1.44     2.15   114.45     0  01:11        2.15
  82309c               JUNCTION     1.43     2.11   114.41     0  01:13        2.11
  WetWell              JUNCTION     1.22     1.94   114.24     0  01:02        1.94
  10208                OUTFALL      1.20     1.70    -8.30     0  03:17        1.70
  10208b               OUTFALL      1.03     1.58    91.48     0  03:24        1.58
  10208c               OUTFALL      1.11     1.58    91.48     0  03:13        1.58
  10208d               OUTFALL      1.03     1.59    91.49     0  03:26        1.59
  10208e               OUTFALL      0.70     1.08    90.98     0  03:15        1.08
  10208a               OUTFALL      4.50     4.50    94.40     0  00:00        4.50
  82309d               STORAGE      1.52     2.25   114.55     0  01:10        2.25
  
  
  *******************
  Node Inflow Summary
  *******************
  
  -------------------------------------------------------------------------------------------------
                                  Maximum  Maximum                  Lateral       Total        Flow
                                  Lateral    Total  Time of Max      Inflow      Inflow     Balance
                                   Inflow   Inflow   Occurrence      Volume      Volume       Error
  Node                 Type           CFS      CFS  days hr:min    10^6 gal    10^6 gal     Percent
  -------------------------------------------------------------------------------------------------
  10309                JUNCTION      0.00   154.65     0  03:07           0        12.4       4.883
  10309a               JUNCTION      0.00   154.28     0  03:16           0        12.1       7.471
  10309b               JUNCTION      0.00   129.65     0  03:13           0        9.79       4.655
  10309c               JUNCTION      0.00   128.23     0  03:06           0        10.1       3.308
  10309d               JUNCTION      0.00   131.26     0  03:15           0        9.85       4.726
  10309e               JUNCTION      0.00    53.39     0  02:05           0        3.76       5.367
  15009                JUNCTION      0.00    51.13     0  03:01           0        3.77       5.497
  15009a               JUNCTION      0.00    64.32     0  02:50           0           4      12.766
  15009b               JUNCTION      0.00    63.31     0  02:38           0        4.63       5.095
  15009c               JUNCTION      0.00    58.59     0  03:03           0        4.74       0.202
  15009d               JUNCTION      0.00    64.02     0  02:48           0        3.99      11.674
  15009e               JUNCTION      0.00     0.78     0  00:59           0      0.0927     104.409
  16009                JUNCTION      0.00   155.10     0  03:04           0        12.5       1.065
  16009a               JUNCTION      0.00   157.73     0  03:07           0        12.4       3.152
  16009b               JUNCTION      0.00   134.89     0  03:05           0        10.3       4.837
  16009c               JUNCTION      0.00   128.70     0  03:04           0        10.1       0.569
  16009d               JUNCTION      0.00   138.15     0  03:07           0        10.2       3.584
  16009e               JUNCTION      0.00    57.05     0  01:47           0        3.89       3.433
  16109                JUNCTION      0.00   104.92     0  03:01           0        9.07       0.000
  16109a               JUNCTION      0.00   118.75     0  01:29           0        9.46       0.000
  16109b               JUNCTION      0.00    86.14     0  01:35           0         6.2       0.000
  16109c               JUNCTION      0.00    77.18     0  01:56           0        5.71       0.000
  16109d               JUNCTION      0.00    98.11     0  01:32           0           7       0.000
  16109e               JUNCTION      0.00    60.94     0  01:29           0        4.09       0.000
  80408                JUNCTION     66.00    66.00     0  00:16        7.02        7.02       0.462
  80408a               JUNCTION     65.00    65.00     0  00:16        6.85        6.85       0.072
  80408b               JUNCTION     45.00    45.00     0  00:16        3.62        3.62      -2.227
  80408c               JUNCTION     45.00    45.00     0  00:16        3.62        3.62      -2.227
  80408d               JUNCTION     45.00    45.00     0  00:16        3.62        3.62      -2.227
  80408e               JUNCTION     11.25    11.25     0  00:16       0.906       0.906      -3.195
  80608                JUNCTION      0.00    77.65     0  00:44           0        6.98       9.382
  80608a               JUNCTION      0.00    81.78     0  00:36           0        6.85       8.821
  80608b               JUNCTION      0.00    58.45     0  00:41           0         3.7       4.888
  80608c               JUNCTION      0.00    58.45     0  00:41           0         3.7       4.888
  80608d               JUNCTION      0.00    58.45     0  00:41           0         3.7       4.888
  80608e               JUNCTION      0.00    15.08     0  00:56           0       0.935      10.274
  81009                JUNCTION     50.00    50.00     0  00:16        4.03        4.03      -5.971
  81009a               JUNCTION     50.00    50.00     0  00:16        4.03        4.03      -5.033
  81009b               JUNCTION     50.00    50.00     0  00:16        4.03        4.03      -4.727
  81009c               JUNCTION     50.00    50.00     0  00:16        4.03        4.03      -6.285
  81009d               JUNCTION     50.00    50.00     0  00:16        4.03        4.03      -5.013
  81009e               JUNCTION     50.00    50.00     0  00:16        4.03        4.03      -9.695
  81309                JUNCTION      0.00    73.23     0  01:29           0        4.28      13.080
  81309a               JUNCTION      0.00    73.04     0  01:30           0        4.23       5.710
  81309b               JUNCTION      0.00    67.37     0  01:40           0        4.22       7.745
  81309c               JUNCTION      0.00    71.73     0  01:37           0        4.29      19.758
  81309d               JUNCTION      0.00    72.92     0  01:30           0        4.23       5.724
  81309e               JUNCTION      0.00    76.16     0  01:25           0        4.45   29301.307
  82308d               JUNCTION      0.00    18.63     0  03:14           0      0.0342       0.000
  82309                JUNCTION     40.00   105.82     0  03:00        3.22         9.6       5.691
  82309a               JUNCTION     40.00   104.82     0  03:00        3.22        9.51       0.353
  82309b               JUNCTION     40.00    84.77     0  03:00        3.22        6.75      -2.651
  82309c               JUNCTION     40.00    84.77     0  03:00        3.22        6.75      -1.962
  WetWell              JUNCTION     40.00    50.72     0  03:00        3.22        4.07      -2.988
  10208                OUTFALL       0.00   151.60     0  03:17           0        11.8       0.000
  10208b               OUTFALL       0.00   126.43     0  03:24           0        9.35       0.000
  10208c               OUTFALL       0.00   126.27     0  03:13           0        9.72       0.000
  10208d               OUTFALL       0.00   127.19     0  03:26           0        9.39       0.000
  10208e               OUTFALL       0.00    48.91     0  03:15           0        3.56       0.000
  10208a               OUTFALL       0.00   151.07     0  03:26           0        11.2       0.000
  82309d               STORAGE      40.00    84.77     0  03:00        3.22        6.77      -3.992
  
  
  **********************
  Node Surcharge Summary
  **********************
  
  Surcharging occurs when water rises above the top of the highest conduit.
  ---------------------------------------------------------------------
                                               Max. Height   Min. Depth
                                   Hours       Above Crown    Below Rim
  Node                 Type      Surcharged           Feet         Feet
  ---------------------------------------------------------------------
  82308d               JUNCTION        2.59          6.600       34.100
  
  
  *********************
  Node Flooding Summary
  *********************
  
  No nodes were flooded.
  
  
  **********************
  Storage Volume Summary
  **********************
  
  ------------------------------------------------------------------------------------------------
                         Average    Avg   Evap  Exfil     Maximum    Max    Time of Max    Maximum
                          Volume   Pcnt   Pcnt   Pcnt      Volume   Pcnt     Occurrence    Outflow
  Storage Unit          1000 ftł   Full   Loss   Loss    1000 ftł   Full    days hr:min        CFS
  ------------------------------------------------------------------------------------------------
  82309d                   1.214    3.6    0.0    0.0       1.803    5.3       0  01:10      98.18
  
  
  ***********************
  Outfall Loading Summary
  ***********************
  
  -----------------------------------------------------------
                         Flow       Avg       Max       Total
                         Freq      Flow      Flow      Volume
  Outfall Node           Pcnt       CFS       CFS    10^6 gal
  -----------------------------------------------------------
  10208                 93.66     86.63    151.60      11.775
  10208b                85.49     75.34    126.43       9.348
  10208c                94.51     71.35    126.27       9.716
  10208d                85.92     75.20    127.19       9.394
  10208e                85.35     28.95     48.91       3.558
  10208a                84.37     91.26    151.07      11.197
  -----------------------------------------------------------
  System                88.22    428.73    728.61      54.987
  
  
  ********************
  Link Flow Summary
  ********************
  
  -----------------------------------------------------------------------------
                                 Maximum  Time of Max   Maximum    Max/    Max/
                                  |Flow|   Occurrence   |Veloc|    Full    Full
  Link                 Type          CFS  days hr:min    ft/sec    Flow   Depth
  -----------------------------------------------------------------------------
  1030e                CHANNEL     48.91     0  03:15      2.14    0.01    0.17
  UsesTransects        CHANNEL    151.60     0  03:17      2.64    0.02    0.27
  1030a                CHANNEL    151.07     0  03:26      1.30    0.02    0.38
  1030b                CHANNEL    126.43     0  03:24      2.73    0.02    0.24
  1030c                CHANNEL    126.27     0  03:13      2.73    0.02    0.24
  1030d                CHANNEL    127.19     0  03:26      2.74    0.02    0.24
  1570                 CHANNEL     50.58     0  03:10      2.93    0.00    0.15
  1570a                CHANNEL     57.08     0  03:21      1.24    0.01    0.24
  1570b                CHANNEL     59.45     0  03:11      1.40    0.01    0.24
  1570c                CHANNEL     58.41     0  03:06      6.24    0.00    0.19
  1570d                CHANNEL     57.08     0  03:21      1.23    0.01    0.24
  1570e                CHANNEL      0.33     0  05:32      0.66    0.00    0.11
  1600                 CHANNEL    104.73     0  03:02      9.82    0.00    0.14
  1600a                CHANNEL    112.18     0  01:46      2.41    0.02    0.27
  1600b                CHANNEL     81.23     0  01:46      2.16    0.01    0.26
  1600c                CHANNEL     70.34     0  03:03      1.47    0.01    0.26
  1600d                CHANNEL     92.43     0  01:48      2.29    0.02    0.26
  1600e                CHANNEL     56.87     0  01:47      2.02    0.01    0.19
  1602                 CHANNEL    104.92     0  03:01      2.42    0.02    0.23
  1602a                CHANNEL    118.75     0  01:29      2.33    0.02    0.25
  1602b                CHANNEL     86.14     0  01:35      2.15    0.01    0.22
  1602c                CHANNEL     77.18     0  01:56      2.09    0.01    0.22
  1602d                CHANNEL     98.11     0  01:32      2.22    0.02    0.23
  1602e                CHANNEL     60.94     0  01:29      1.97    0.01    0.20
  1630                 CHANNEL    154.65     0  03:07      4.85    0.01    0.26
  1630a                CHANNEL    154.28     0  03:16      4.96    0.03    0.27
  1630b                CHANNEL    129.65     0  03:13      2.45    0.02    0.29
  1630c                CHANNEL    128.23     0  03:06      2.09    0.02    0.29
  1630d                CHANNEL    131.26     0  03:15      2.40    0.02    0.30
  1630e                CHANNEL     53.39     0  02:05      2.08    0.01    0.21
  8040                 CHANNEL     77.65     0  00:44      1.90    0.02    0.24
  8040a                CHANNEL     81.78     0  00:36      2.82    0.01    0.22
  8040b                CHANNEL     58.45     0  00:41      4.23    0.01    0.19
  8040c                CHANNEL     58.45     0  00:41      4.23    0.01    0.19
  8040d                CHANNEL     58.45     0  00:41      4.23    0.01    0.19
  8040e                CHANNEL     15.08     0  00:56      3.05    0.00    0.11
  8060                 CHANNEL     65.82     0  03:01      2.14    0.01    0.19
  8060a                CHANNEL     64.82     0  03:01      2.13    0.01    0.19
  8060b                CHANNEL     44.78     0  03:01      1.93    0.01    0.17
  8060c                CHANNEL     44.78     0  03:01      1.93    0.01    0.17
  8060d                CHANNEL     44.78     0  03:01      1.93    0.01    0.17
  8060e                CHANNEL     10.75     0  03:04      1.33    0.00    0.10
  8100                 CHANNEL     73.23     0  01:29      2.14    0.01    0.21
  8100a                CHANNEL     73.04     0  01:30      2.14    0.01    0.21
  8100b                CHANNEL     67.37     0  01:40      2.11    0.01    0.20
  8100c                CHANNEL     71.73     0  01:37      2.13    0.01    0.22
  8100d                CHANNEL     72.92     0  01:30      2.14    0.01    0.21
  8100e                CHANNEL     76.15     0  01:25      2.16    0.01    0.28
  8130                 CHANNEL     51.13     0  03:01      1.92    0.01    0.18
  8130a                CHANNEL     64.32     0  02:50      1.97    0.01    0.20
  8130b                CHANNEL     57.82     0  02:39      1.89    0.01    0.19
  8130c                CHANNEL     46.26     0  03:07      1.90    0.01    0.17
  8130d                CHANNEL     64.02     0  02:48      1.97    0.01    0.20
  8130e                CHANNEL      0.01     0  00:38      0.04    0.00    0.23
  Pump1                PUMP         0.78     0  00:59              0.05
  Pump2                PUMP         0.00     0  00:00              0.00
  Pump3                PUMP         0.00     0  00:00              0.00
  OR1@82309d-82308d    ORIFICE     18.63     0  03:14                      1.00
  OR1@82309b-15009b    ORIFICE      7.77     0  01:01                          
  WEIR1@82309c-15009c  WEIR        16.49     0  01:13                      0.23
  
  
  ***************************
  Flow Classification Summary
  ***************************
  
  -------------------------------------------------------------------------------------
                      Adjusted    ---------- Fraction of Time in Flow Class ---------- 
                       /Actual         Up    Down  Sub   Sup   Up    Down  Norm  Inlet 
  Conduit               Length    Dry  Dry   Dry   Crit  Crit  Crit  Crit  Ltd   Ctrl  
  -------------------------------------------------------------------------------------
  1030e                   1.00   0.13  0.00  0.00  0.84  0.03  0.00  0.00  0.00  0.00
  UsesTransects           1.00   0.07  0.00  0.00  0.92  0.01  0.00  0.00  0.00  0.00
  1030a                   1.00   0.00  0.16  0.00  0.84  0.00  0.00  0.00  0.85  0.00
  1030b                   1.00   0.12  0.00  0.00  0.86  0.03  0.00  0.00  0.00  0.00
  1030c                   1.00   0.07  0.00  0.00  0.91  0.02  0.00  0.00  0.00  0.00
  1030d                   1.00   0.13  0.00  0.00  0.84  0.02  0.00  0.00  0.00  0.00
  1570                    1.00   0.03  0.04  0.00  0.93  0.00  0.00  0.00  0.93  0.00
  1570a                   1.00   0.05  0.02  0.00  0.93  0.00  0.00  0.00  0.90  0.00
  1570b                   1.00   0.00  0.00  0.00  0.99  0.01  0.00  0.00  0.77  0.00
  1570c                   5.38   0.04  0.00  0.00  0.92  0.05  0.00  0.00  0.95  0.00
  1570d                   1.00   0.05  0.02  0.00  0.93  0.00  0.00  0.00  0.90  0.00
  1570e                   1.00   0.00  0.00  0.00  0.90  0.09  0.00  0.00  0.85  0.00
  1600                    1.46   0.01  0.00  0.00  0.02  0.96  0.00  0.00  0.90  0.00
  1600a                   1.00   0.01  0.00  0.00  0.98  0.01  0.00  0.00  0.21  0.00
  1600b                   1.00   0.01  0.00  0.00  0.98  0.01  0.00  0.00  0.09  0.00
  1600c                   1.00   0.01  0.00  0.00  0.98  0.01  0.00  0.00  0.39  0.00
  1600d                   1.00   0.01  0.00  0.00  0.98  0.01  0.00  0.00  0.13  0.00
  1600e                   1.00   0.01  0.00  0.00  0.98  0.01  0.00  0.00  0.67  0.00
  1602                    1.00   0.00  0.00  0.00  1.00  0.00  0.00  0.00  0.00  0.00
  1602a                   1.00   0.00  0.00  0.00  1.00  0.00  0.00  0.00  0.75  0.00
  1602b                   1.00   0.00  0.00  0.00  1.00  0.00  0.00  0.00  0.73  0.00
  1602c                   1.00   0.00  0.00  0.00  1.00  0.00  0.00  0.00  0.68  0.00
  1602d                   1.00   0.00  0.00  0.00  1.00  0.00  0.00  0.00  0.74  0.00
  1602e                   1.00   0.00  0.00  0.00  1.00  0.00  0.00  0.00  0.75  0.00
  1630                    1.01   0.03  0.00  0.00  0.87  0.10  0.00  0.00  0.84  0.00
  1630a                   1.00   0.05  0.00  0.00  0.91  0.04  0.00  0.00  0.00  0.00
  1630b                   1.00   0.04  0.00  0.00  0.91  0.05  0.00  0.00  0.00  0.00
  1630c                   1.00   0.05  0.00  0.00  0.95  0.00  0.00  0.00  0.01  0.00
  1630d                   1.00   0.05  0.00  0.00  0.92  0.03  0.00  0.00  0.00  0.00
  1630e                   1.00   0.07  0.00  0.00  0.90  0.03  0.00  0.00  0.00  0.00
  8040                    1.00   0.00  0.00  0.00  1.00  0.00  0.00  0.00  0.81  0.00
  8040a                   1.00   0.00  0.00  0.00  0.99  0.01  0.00  0.00  0.89  0.00
  8040b                   1.00   0.00  0.00  0.00  1.00  0.00  0.00  0.00  0.88  0.00
  8040c                   1.00   0.00  0.00  0.00  1.00  0.00  0.00  0.00  0.88  0.00
  8040d                   1.00   0.00  0.00  0.00  1.00  0.00  0.00  0.00  0.88  0.00
  8040e                   1.00   0.00  0.00  0.00  1.00  0.00  0.00  0.00  0.83  0.00
  8060                    1.00   0.00  0.00  0.00  0.00  0.00  0.00  1.00  0.00  0.00
  8060a                   1.00   0.00  0.00  0.00  0.00  0.00  0.00  1.00  0.00  0.00
  8060b                   1.00   0.01  0.00  0.00  0.00  0.00  0.00  0.99  0.00  0.00
  8060c                   1.00   0.01  0.00  0.00  0.00  0.00  0.00  0.99  0.00  0.00
  8060d                   1.00   0.01  0.00  0.00  0.00  0.00  0.00  0.99  0.00  0.00
  8060e                   1.00   0.01  0.00  0.00  0.00  0.00  0.00  0.99  0.00  0.00
  8100                    1.00   0.00  0.00  0.00  1.00  0.00  0.00  0.00  0.75  0.00
  8100a                   1.00   0.00  0.00  0.00  1.00  0.00  0.00  0.00  0.75  0.00
  8100b                   1.00   0.00  0.00  0.00  1.00  0.00  0.00  0.00  0.70  0.00
  8100c                   1.00   0.00  0.00  0.00  1.00  0.00  0.00  0.00  0.73  0.00
  8100d                   1.00   0.00  0.00  0.00  1.00  0.00  0.00  0.00  0.75  0.00
  8100e                   1.00   0.00  0.00  0.00  1.00  0.00  0.00  0.00  0.76  0.00
  8130                    1.00   0.01  0.00  0.00  0.99  0.00  0.00  0.00  0.00  0.00
  8130a                   1.00   0.01  0.00  0.00  0.99  0.00  0.00  0.00  0.43  0.00
  8130b                   1.00   0.00  0.01  0.00  0.99  0.00  0.00  0.00  0.60  0.00
  8130c                   1.00   0.01  0.00  0.00  0.99  0.00  0.00  0.00  0.05  0.00
  8130d                   1.00   0.01  0.00  0.00  0.99  0.00  0.00  0.00  0.43  0.00
  8130e                   1.00   0.00  0.00  0.00  0.99  0.00  0.00  0.00  0.54  0.00
  
  
  *************************
  Conduit Surcharge Summary
  *************************
  
  No conduits were surcharged.
  
  
  ***************
  Pumping Summary
  ***************
  
  ---------------------------------------------------------------------------------------------------------
                                                  Min       Avg       Max     Total     Power    % Time Off
                        Percent   Number of      Flow      Flow      Flow    Volume     Usage    Pump Curve
  Pump                 Utilized   Start-Ups       CFS       CFS       CFS  10^6 gal     Kw-hr    Low   High
  ---------------------------------------------------------------------------------------------------------
  Pump1                   99.72           1      0.00      0.58      0.78     0.092      2.18    0.0    0.0
  Pump2                    0.00           0      0.00      0.00      0.00     0.000      0.00    0.0    0.0
  Pump3                    0.00           0      0.00      0.00      0.00     0.000      0.00    0.0    0.0
  

  Analysis begun on:  Tue Jun 23 20:45:50 2026
  Analysis ended on:  Tue Jun 23 20:45:50 2026
  Total elapsed time: < 1 sec