
  EPA STORM WATER MANAGEMENT MODEL - VERSION 5.2 (Build 5.2.4)
  ------------------------------------------------------------

  
  *************
  Element Count
  *************
  Number of rain gages ...... 0
  Number of subcatchments ... 0
  Number of nodes ........... 22
  Number of links ........... 21
  Number of pollutants ...... 0
  Number of land uses ....... 0
  
  
  ************
  Node Summary
  ************
                                           Invert      Max.    Ponded    External
  Name                 Type                 Elev.     Depth      Area    Inflow  
  -------------------------------------------------------------------------------
  1                    JUNCTION            100.90      5.00       0.0    Yes
  11                   JUNCTION             75.00      5.00       0.0
  13                   JUNCTION             70.00      5.00       0.0
  15                   JUNCTION             65.00      5.00       0.0
  17                   JUNCTION             60.00      5.00       0.0
  19                   JUNCTION             55.00      5.00       0.0
  21                   JUNCTION             50.00      5.00       0.0
  23                   JUNCTION             45.00      5.00       0.0
  25                   JUNCTION             40.00      5.00       0.0
  27                   JUNCTION             35.00      5.00       0.0
  29                   JUNCTION             30.00      5.00       0.0
  3                    JUNCTION             95.90      5.00       0.0
  31                   JUNCTION             25.00      5.00       0.0
  33                   JUNCTION             20.00      5.00       0.0
  35                   JUNCTION             15.00      5.00       0.0
  37                   JUNCTION             10.00      5.00       0.0
  39                   JUNCTION              5.00      5.00       0.0
  3a                   JUNCTION             98.40      4.50       0.0
  5                    JUNCTION             90.00      5.00       0.0
  7                    JUNCTION             85.00      5.00       0.0
  9                    JUNCTION             80.00      5.00       0.0
  41                   OUTFALL               0.00      4.00       0.0
  
  
  ************
  Link Summary
  ************
  Name             From Node        To Node          Type            Length    %Slope Roughness
  ---------------------------------------------------------------------------------------------
  2                1                3a               CONDUIT          250.0    1.0001    0.0130
  2a               3a               3                CONDUIT          250.0    1.0001    0.0130
  4                3                5                CONDUIT          500.0    1.1801    0.0130
  6                5                7                CONDUIT          500.0    1.0001    0.0130
  8                7                9                CONDUIT          500.0    1.0001    0.0130
  10               9                11               CONDUIT          500.0    1.0001    0.0130
  12               11               13               CONDUIT          500.0    1.0001    0.0130
  14               13               15               CONDUIT          500.0    1.0001    0.0130
  16               15               17               CONDUIT          500.0    1.0001    0.0130
  18               17               19               CONDUIT          500.0    1.0001    0.0130
  20               19               21               CONDUIT          500.0    1.0001    0.0130
  22               21               23               CONDUIT          500.0    1.0001    0.0130
  24               23               25               CONDUIT          500.0    1.0001    0.0130
  26               25               27               CONDUIT          500.0    1.0001    0.0130
  28               27               29               CONDUIT          500.0    1.0001    0.0130
  30               29               31               CONDUIT          500.0    1.0001    0.0130
  32               31               33               CONDUIT          500.0    1.0001    0.0130
  34               33               35               CONDUIT          500.0    1.0001    0.0130
  36               35               37               CONDUIT          500.0    1.0001    0.0130
  38               37               39               CONDUIT          500.0    1.0001    0.0130
  40               39               41               CONDUIT          500.0    1.0001    0.0130
  
  
  *********************
  Cross Section Summary
  *********************
                                        Full     Full     Hyd.     Max.   No. of     Full
  Conduit          Shape               Depth     Area     Rad.    Width  Barrels     Flow
  ---------------------------------------------------------------------------------------
  2                CIRCULAR             4.00    12.57     1.00     4.00        1   143.65
  2a               CIRCULAR             4.00    12.57     1.00     4.00        1   143.65
  4                CIRCULAR             4.00    12.57     1.00     4.00        1   156.04
  6                CIRCULAR             4.00    12.57     1.00     4.00        1   143.65
  8                CIRCULAR             4.00    12.57     1.00     4.00        1   143.65
  10               CIRCULAR             4.00    12.57     1.00     4.00        1   143.65
  12               CIRCULAR             4.00    12.57     1.00     4.00        1   143.65
  14               CIRCULAR             4.00    12.57     1.00     4.00        1   143.65
  16               CIRCULAR             4.00    12.57     1.00     4.00        1   143.65
  18               CIRCULAR             4.00    12.57     1.00     4.00        1   143.65
  20               CIRCULAR             4.00    12.57     1.00     4.00        1   143.65
  22               CIRCULAR             4.00    12.57     1.00     4.00        1   143.65
  24               CIRCULAR             4.00    12.57     1.00     4.00        1   143.65
  26               CIRCULAR             4.00    12.57     1.00     4.00        1   143.65
  28               CIRCULAR             4.00    12.57     1.00     4.00        1   143.65
  30               CIRCULAR             4.00    12.57     1.00     4.00        1   143.65
  32               CIRCULAR             4.00    12.57     1.00     4.00        1   143.65
  34               CIRCULAR             4.00    12.57     1.00     4.00        1   143.65
  36               CIRCULAR             4.00    12.57     1.00     4.00        1   143.65
  38               CIRCULAR             4.00    12.57     1.00     4.00        1   143.65
  40               CIRCULAR             4.00    12.57     1.00     4.00        1   143.65
  
  
  ****************
  Analysis Options
  ****************
  Flow Units ............... CFS
  Process Models:
    Rainfall/Runoff ........ NO
    RDII ................... NO
    Snowmelt ............... NO
    Groundwater ............ NO
    Flow Routing ........... YES
    Ponding Allowed ........ NO
    Water Quality .......... NO
  Flow Routing Method ...... DYNWAVE
  Surcharge Method ......... EXTRAN
  Starting Date ............ 02/22/2002 00:00:00
  Ending Date .............. 02/22/2002 03:00:00
  Antecedent Dry Days ...... 0.0
  Report Time Step ......... 00:00:30
  Routing Time Step ........ 0.20 sec
  Variable Time Step ....... YES
  Maximum Trials ........... 8
  Number of Threads ........ 1
  Head Tolerance ........... 0.005000 ft
  
  
  **************************        Volume        Volume
  Flow Routing Continuity        acre-feet      10^6 gal
  **************************     ---------     ---------
  Dry Weather Inflow .......         0.248         0.081
  Wet Weather Inflow .......         0.000         0.000
  Groundwater Inflow .......         0.000         0.000
  RDII Inflow ..............         0.000         0.000
  External Inflow ..........         1.501         0.489
  External Outflow .........         1.684         0.549
  Flooding Loss ............         0.000         0.000
  Evaporation Loss .........         0.000         0.000
  Exfiltration Loss ........         0.000         0.000
  Initial Stored Volume ....         0.000         0.000
  Final Stored Volume ......         0.070         0.023
  Continuity Error (%) .....        -0.248
  
  
  ***************************
  Time-Step Critical Elements
  ***************************
  None
  
  
  ********************************
  Highest Flow Instability Indexes
  ********************************
  All links are stable.
  
  
  *********************************
  Most Frequent Nonconverging Nodes
  *********************************
  Convergence obtained at all time steps.
  
  
  *************************
  Routing Time Step Summary
  *************************
  Minimum Time Step           :     0.20 sec
  Average Time Step           :     0.20 sec
  Maximum Time Step           :     0.20 sec
  % of Time in Steady State   :     0.00
  Average Iterations per Step :     2.00
  % of Steps Not Converging   :     0.00
  Time Step Frequencies       :
      0.200 -  0.200 sec      :     0.00 %
      0.200 -  0.200 sec      :     0.00 %
      0.200 -  0.200 sec      :     0.00 %
      0.200 -  0.200 sec      :     0.00 %
      0.200 -  0.200 sec      :   100.00 %
  
  
  ******************
  Node Depth Summary
  ******************
  
  ---------------------------------------------------------------------------------
                                 Average  Maximum  Maximum  Time of Max    Reported
                                   Depth    Depth      HGL   Occurrence   Max Depth
  Node                 Type         Feet     Feet     Feet  days hr:min        Feet
  ---------------------------------------------------------------------------------
  1                    JUNCTION     0.48     1.28   102.18     0  00:31        1.27
  11                   JUNCTION     0.47     1.12    76.12     0  00:34        1.12
  13                   JUNCTION     0.47     1.11    71.11     0  00:35        1.11
  15                   JUNCTION     0.47     1.11    66.11     0  00:15        1.11
  17                   JUNCTION     0.47     1.11    61.11     0  00:16        1.11
  19                   JUNCTION     0.47     1.12    56.12     0  00:17        1.12
  21                   JUNCTION     0.47     1.12    51.12     0  00:18        1.12
  23                   JUNCTION     0.47     1.12    46.12     0  00:19        1.12
  25                   JUNCTION     0.47     1.13    41.13     0  00:20        1.12
  27                   JUNCTION     0.46     1.13    36.13     0  00:21        1.13
  29                   JUNCTION     0.46     1.13    31.13     0  00:22        1.13
  3                    JUNCTION     0.46     1.14    97.04     0  00:31        1.14
  31                   JUNCTION     0.46     1.13    26.13     0  00:23        1.13
  33                   JUNCTION     0.46     1.13    21.13     0  00:24        1.13
  35                   JUNCTION     0.46     1.13    16.13     0  00:25        1.13
  37                   JUNCTION     0.46     1.16    11.16     0  00:26        1.16
  39                   JUNCTION     0.46     1.08     6.08     0  00:28        1.08
  3a                   JUNCTION     0.49     1.30    99.70     0  00:31        1.30
  5                    JUNCTION     0.48     1.17    91.17     0  00:32        1.17
  7                    JUNCTION     0.48     1.14    86.14     0  00:33        1.14
  9                    JUNCTION     0.47     1.13    81.13     0  00:33        1.13
  41                   OUTFALL      0.45     1.08     1.08     0  00:28        1.08
  
  
  *******************
  Node Inflow Summary
  *******************
  
  -------------------------------------------------------------------------------------------------
                                  Maximum  Maximum                  Lateral       Total        Flow
                                  Lateral    Total  Time of Max      Inflow      Inflow     Balance
                                   Inflow   Inflow   Occurrence      Volume      Volume       Error
  Node                 Type           CFS      CFS  days hr:min    10^6 gal    10^6 gal     Percent
  -------------------------------------------------------------------------------------------------
  1                    JUNCTION     31.00    31.00     0  00:31        0.57        0.57       0.006
  11                   JUNCTION      0.00    24.60     0  00:34           0       0.565       0.192
  13                   JUNCTION      0.00    24.23     0  00:34           0       0.564       0.193
  15                   JUNCTION      0.00    23.95     0  00:35           0       0.563       0.194
  17                   JUNCTION      0.00    23.73     0  00:36           0       0.562       0.195
  19                   JUNCTION      0.00    23.68     0  00:16           0       0.561       0.195
  21                   JUNCTION      0.00    23.80     0  00:17           0        0.56       0.196
  23                   JUNCTION      0.00    23.90     0  00:18           0       0.559       0.196
  25                   JUNCTION      0.00    24.00     0  00:19           0       0.558       0.197
  27                   JUNCTION      0.00    24.08     0  00:20           0       0.557       0.197
  29                   JUNCTION      0.00    24.16     0  00:22           0       0.556       0.197
  3                    JUNCTION      0.00    28.74     0  00:31           0       0.569       0.103
  31                   JUNCTION      0.00    24.23     0  00:23           0       0.555       0.198
  33                   JUNCTION      0.00    24.29     0  00:24           0       0.553       0.198
  35                   JUNCTION      0.00    24.34     0  00:25           0       0.552       0.198
  37                   JUNCTION      0.00    24.52     0  00:26           0       0.551       0.196
  39                   JUNCTION      0.00    24.04     0  00:27           0        0.55       0.276
  3a                   JUNCTION      0.00    30.76     0  00:31           0        0.57       0.101
  5                    JUNCTION      0.00    27.69     0  00:32           0       0.569       0.196
  7                    JUNCTION      0.00    25.96     0  00:32           0       0.568       0.192
  9                    JUNCTION      0.00    25.14     0  00:33           0       0.567       0.191
  41                   OUTFALL       0.00    22.73     0  00:28           0       0.549       0.000
  
  
  **********************
  Node Surcharge Summary
  **********************
  
  No nodes were surcharged.
  
  
  *********************
  Node Flooding Summary
  *********************
  
  No nodes were flooded.
  
  
  ***********************
  Outfall Loading Summary
  ***********************
  
  -----------------------------------------------------------
                         Flow       Avg       Max       Total
                         Freq      Flow      Flow      Volume
  Outfall Node           Pcnt       CFS       CFS    10^6 gal
  -----------------------------------------------------------
  41                    87.81      7.74     22.73       0.549
  -----------------------------------------------------------
  System                87.81      7.74     22.73       0.549
  
  
  ********************
  Link Flow Summary
  ********************
  
  -----------------------------------------------------------------------------
                                 Maximum  Time of Max   Maximum    Max/    Max/
                                  |Flow|   Occurrence   |Veloc|    Full    Full
  Link                 Type          CFS  days hr:min    ft/sec    Flow   Depth
  -----------------------------------------------------------------------------
  2                    CONDUIT     30.76     0  00:31      9.03    0.21    0.32
  2a                   CONDUIT     28.74     0  00:31      9.06    0.20    0.30
  4                    CONDUIT     27.69     0  00:32      9.47    0.18    0.29
  6                    CONDUIT     25.96     0  00:32      8.76    0.18    0.29
  8                    CONDUIT     25.14     0  00:33      8.68    0.17    0.28
  10                   CONDUIT     24.60     0  00:34      8.68    0.17    0.28
  12                   CONDUIT     24.23     0  00:34      8.70    0.17    0.28
  14                   CONDUIT     23.95     0  00:35      8.72    0.17    0.28
  16                   CONDUIT     23.73     0  00:36      8.74    0.17    0.27
  18                   CONDUIT     23.68     0  00:16      8.76    0.16    0.27
  20                   CONDUIT     23.80     0  00:17      8.78    0.17    0.27
  22                   CONDUIT     23.90     0  00:18      8.79    0.17    0.28
  24                   CONDUIT     24.00     0  00:19      8.80    0.17    0.28
  26                   CONDUIT     24.08     0  00:20      8.81    0.17    0.28
  28                   CONDUIT     24.16     0  00:22      8.82    0.17    0.28
  30                   CONDUIT     24.23     0  00:23      8.83    0.17    0.28
  32                   CONDUIT     24.29     0  00:24      8.84    0.17    0.28
  34                   CONDUIT     24.34     0  00:25      8.84    0.17    0.28
  36                   CONDUIT     24.52     0  00:26      8.85    0.17    0.28
  38                   CONDUIT     24.04     0  00:27      9.05    0.17    0.27
  40                   CONDUIT     22.73     0  00:28      8.34    0.16    0.27
  
  
  ***************************
  Flow Classification Summary
  ***************************
  
  -------------------------------------------------------------------------------------
                      Adjusted    ---------- Fraction of Time in Flow Class ---------- 
                       /Actual         Up    Down  Sub   Sup   Up    Down  Norm  Inlet 
  Conduit               Length    Dry  Dry   Dry   Crit  Crit  Crit  Crit  Ltd   Ctrl  
  -------------------------------------------------------------------------------------
  2                       1.00   0.00  0.00  0.00  0.01  0.99  0.00  0.00  0.96  0.00
  2a                      1.00   0.00  0.00  0.00  0.00  1.00  0.00  0.00  0.04  0.00
  4                       1.00   0.00  0.00  0.00  0.00  1.00  0.00  0.00  0.94  0.00
  6                       1.00   0.00  0.00  0.00  0.01  0.99  0.00  0.00  0.21  0.00
  8                       1.00   0.00  0.00  0.00  0.01  0.98  0.00  0.00  0.24  0.00
  10                      1.00   0.01  0.00  0.00  0.02  0.97  0.00  0.00  0.27  0.00
  12                      1.00   0.01  0.00  0.00  0.03  0.96  0.00  0.00  0.29  0.00
  14                      1.00   0.01  0.00  0.00  0.04  0.95  0.00  0.00  0.31  0.00
  16                      1.00   0.02  0.00  0.00  0.04  0.94  0.00  0.00  0.33  0.00
  18                      1.00   0.02  0.00  0.00  0.04  0.94  0.00  0.00  0.35  0.00
  20                      1.00   0.02  0.00  0.00  0.05  0.93  0.00  0.00  0.36  0.00
  22                      1.00   0.03  0.00  0.00  0.05  0.92  0.00  0.00  0.38  0.00
  24                      1.00   0.03  0.00  0.00  0.05  0.92  0.00  0.00  0.40  0.00
  26                      1.00   0.04  0.00  0.00  0.05  0.91  0.00  0.00  0.41  0.00
  28                      1.00   0.04  0.00  0.00  0.05  0.91  0.00  0.00  0.43  0.00
  30                      1.00   0.05  0.00  0.00  0.05  0.90  0.00  0.00  0.44  0.00
  32                      1.00   0.05  0.00  0.00  0.05  0.89  0.00  0.00  0.45  0.00
  34                      1.00   0.06  0.00  0.00  0.06  0.89  0.00  0.00  0.47  0.00
  36                      1.00   0.06  0.00  0.00  0.06  0.88  0.00  0.00  0.48  0.00
  38                      1.00   0.06  0.00  0.00  0.06  0.88  0.00  0.00  0.81  0.00
  40                      1.00   0.07  0.00  0.00  0.06  0.87  0.00  0.00  0.12  0.00
  
  
  *************************
  Conduit Surcharge Summary
  *************************
  
  No conduits were surcharged.
  

  Analysis begun on:  Tue Jun 23 20:45:52 2026
  Analysis ended on:  Tue Jun 23 20:45:52 2026
  Total elapsed time: < 1 sec