
  EPA STORM WATER MANAGEMENT MODEL - VERSION 5.2 (Build 5.2.4)
  ------------------------------------------------------------

  
  ERROR 211: invalid number  at line 1051 of [XSECT] section:
  644              MODBASKETHANDLE 3.0              0.0        0          0          1

  
  ERROR 211: invalid number  at line 1054 of [XSECT] section:
  655              MODBASKETHANDLE 3.5              0.0        0          0          1

  
  ERROR 211: invalid number  at line 1055 of [XSECT] section:
  656              MODBASKETHANDLE 3.5              0.0        0          0          1

  
  ERROR 211: invalid number  at line 1056 of [XSECT] section:
  657              MODBASKETHANDLE 3.5              0.0        0          0          1

  
  ERROR 211: invalid number  at line 1122 of [XSECT] section:
  817pipe          MODBASKETHANDLE 2.5              0.0        0          0          1

  
  ERROR 211: invalid number  at line 1124 of [XSECT] section:
  816pipe          MODBASKETHANDLE 2.0              0.0        0          0          1

  
  ERROR 211: invalid number  at line 1126 of [XSECT] section:
  815pipe1         MODBASKETHANDLE 2.0              0.0        0          0          1

  
  ERROR 211: invalid number  at line 1128 of [XSECT] section:
  815pipe2         MODBASKETHANDLE 2.0              0.0        0          0          1

  
  ERROR 211: invalid number  at line 1129 of [XSECT] section:
  814pipe          MODBASKETHANDLE 2.0              0.0        0          0          1

  
  ERROR 211: invalid number  at line 1131 of [XSECT] section:
  810pipe1         MODBASKETHANDLE 4.0              0.0        0          0          1

  
  ERROR 211: invalid number  at line 1133 of [XSECT] section:
  810pipe2         MODBASKETHANDLE 3.0              0.0        0          0          1

  
  ERROR 211: invalid number  at line 1134 of [XSECT] section:
  789pipe          MODBASKETHANDLE 4.0              0.0        0          0          1


  Analysis begun on:  Tue Jun 23 21:15:34 2026
  Analysis ended on:  Tue Jun 23 21:15:34 2026
  Total elapsed time: < 1 sec