
  EPA STORM WATER MANAGEMENT MODEL - VERSION 5.2 (Build 5.2.4)
  ------------------------------------------------------------

  
  ERROR 205: invalid keyword SEMI_CIRCULAR at line 837 of [XSECT] section:
  20704016-20704017 SEMI_CIRCULAR 1.0              0.0        0          0          1

  
  ERROR 205: invalid keyword SEMI_CIRCULAR at line 838 of [XSECT] section:
  20704017-20704018 SEMI_CIRCULAR 1.0              0.0        0          0          1

  
  ERROR 205: invalid keyword SEMI_CIRCULAR at line 839 of [XSECT] section:
  20704018-20704025 SEMI_CIRCULAR 1.0              0.0        0          0          1

  
  ERROR 205: invalid keyword SEMI_CIRCULAR at line 840 of [XSECT] section:
  20704025-23916025 SEMI_CIRCULAR 1.0              0.0        0          0          1

  
  ERROR 205: invalid keyword SEMI_CIRCULAR at line 841 of [XSECT] section:
  20712009-20712010 SEMI_CIRCULAR 1.0              0.0        0          0          1

  
  ERROR 205: invalid keyword SEMI_CIRCULAR at line 842 of [XSECT] section:
  20712010-20712011 SEMI_CIRCULAR 1.0              0.0        0          0          1

  
  ERROR 205: invalid keyword SEMI_CIRCULAR at line 843 of [XSECT] section:
  20712011-23809003 SEMI_CIRCULAR 1.25             0.0        0          0          1

  
  ERROR 205: invalid keyword SEMI_CIRCULAR at line 844 of [XSECT] section:
  20713008-23816017 SEMI_CIRCULAR 1.0              0.0        0          0          1

  
  ERROR 205: invalid keyword SEMI_CIRCULAR at line 845 of [XSECT] section:
  23701001-23701040 SEMI_CIRCULAR 2.0              0.0        0          0          1

  
  ERROR 205: invalid keyword SEMI_CIRCULAR at line 846 of [XSECT] section:
  23701005-23701001 SEMI_CIRCULAR 2.0              0.0        0          0          1

  
  ERROR 205: invalid keyword SEMI_CIRCULAR at line 847 of [XSECT] section:
  23701006-23701005 SEMI_CIRCULAR 2.0              0.0        0          0          1

  
  ERROR 205: invalid keyword SEMI_CIRCULAR at line 848 of [XSECT] section:
  23701007-23701006 SEMI_CIRCULAR 2.0              0.0        0          0          1


  Analysis begun on:  Tue Jun 23 21:13:12 2026
  Analysis ended on:  Tue Jun 23 21:13:12 2026
  Total elapsed time: < 1 sec