
  EPA STORM WATER MANAGEMENT MODEL - VERSION 5.2 (Build 5.2.4)
  ------------------------------------------------------------

  
  ERROR 205: invalid keyword SEMI_ELLIPTICAL at line 387 of [XSECT] section:
  12               SEMI_ELLIPTICAL 1.9           0.0        0          0          1                    

  
  ERROR 211: invalid number  at line 395 of [XSECT] section:
  20               MODBASKETHANDLE 1.7           0.0        0          0          1                    

  
  ERROR 205: invalid keyword SEMI_CIRCULAR at line 396 of [XSECT] section:
  21               SEMI_CIRCULAR 1.7             0.0        0          0          1                    


  Analysis begun on:  Tue Jun 23 21:10:46 2026
  Analysis ended on:  Tue Jun 23 21:10:46 2026
  Total elapsed time: < 1 sec