
  EPA STORM WATER MANAGEMENT MODEL - VERSION 5.2 (Build 5.2.4)
  ------------------------------------------------------------

   user3 - DUMMY cross-section test 
  
  ERROR 134: Node SMCP85-I has illegal DUMMY link connections.
  
  ERROR 134: Node SDUM4 has illegal DUMMY link connections.
  
  ERROR 134: Node SDUM5 has illegal DUMMY link connections.

  Analysis begun on:  Tue Jun 23 21:11:36 2026
  Analysis ended on:  Tue Jun 23 21:11:37 2026
  Total elapsed time: 00:00:01