
  EPA STORM WATER MANAGEMENT MODEL - VERSION 5.2 (Build 5.2.4)
  ------------------------------------------------------------

  
  ERROR 211: invalid number  at line 376 of [XSECT] section:
  1                MODBASKETHANDLE 4.95          0.0        0          0          1                    

  
  ERROR 211: invalid number  at line 377 of [XSECT] section:
  2                MODBASKETHANDLE 1.9           0.0        0          0          1                    

  
  ERROR 211: invalid number  at line 386 of [XSECT] section:
  11               MODBASKETHANDLE 1.9           0.0        0          0          1                    

  
  ERROR 211: invalid number  at line 387 of [XSECT] section:
  12               MODBASKETHANDLE 1.9           0.0        0          0          1                    

  
  ERROR 211: invalid number  at line 388 of [XSECT] section:
  13               MODBASKETHANDLE 1.9           0.0        0          0          1                    

  
  ERROR 211: invalid number  at line 395 of [XSECT] section:
  20               MODBASKETHANDLE 1.7           0.0        0          0          1                    

  
  ERROR 211: invalid number  at line 396 of [XSECT] section:
  21               MODBASKETHANDLE 1.7           0.0        0          0          1                    

  
  ERROR 211: invalid number  at line 397 of [XSECT] section:
  22               MODBASKETHANDLE 1.7           0.0        0          0          1                    

  
  ERROR 211: invalid number  at line 398 of [XSECT] section:
  23               MODBASKETHANDLE 1.7           0.0        0          0          1                    

  
  ERROR 211: invalid number  at line 399 of [XSECT] section:
  24               MODBASKETHANDLE 1.6           0.0        0          0          1                    

  
  ERROR 211: invalid number  at line 402 of [XSECT] section:
  27               MODBASKETHANDLE 1.6           0.0        0          0          1                    

  
  ERROR 211: invalid number  at line 403 of [XSECT] section:
  28               MODBASKETHANDLE 1.6           0.0        0          0          1                    


  Analysis begun on:  Tue Jun 23 21:10:49 2026
  Analysis ended on:  Tue Jun 23 21:10:49 2026
  Total elapsed time: < 1 sec