
  EPA STORM WATER MANAGEMENT MODEL - VERSION 5.2 (Build 5.2.4)
  ------------------------------------------------------------

  
  ERROR 205: invalid keyword SEMI_ELLIPTICAL at line 1051 of [XSECT] section:
  644              SEMI_ELLIPTICAL 3.0              0.0        0          0          1

  
  ERROR 205: invalid keyword SEMI_ELLIPTICAL at line 1054 of [XSECT] section:
  655              SEMI_ELLIPTICAL 3.5              0.0        0          0          1

  
  ERROR 205: invalid keyword SEMI_ELLIPTICAL at line 1055 of [XSECT] section:
  656              SEMI_ELLIPTICAL 3.5              0.0        0          0          1

  
  ERROR 205: invalid keyword SEMI_ELLIPTICAL at line 1056 of [XSECT] section:
  657              SEMI_ELLIPTICAL 3.5              0.0        0          0          1

  
  ERROR 205: invalid keyword SEMI_ELLIPTICAL at line 1122 of [XSECT] section:
  817pipe          SEMI_ELLIPTICAL 2.5              0.0        0          0          1

  
  ERROR 205: invalid keyword SEMI_ELLIPTICAL at line 1124 of [XSECT] section:
  816pipe          SEMI_ELLIPTICAL 2.0              0.0        0          0          1

  
  ERROR 205: invalid keyword SEMI_ELLIPTICAL at line 1126 of [XSECT] section:
  815pipe1         SEMI_ELLIPTICAL 2.0              0.0        0          0          1

  
  ERROR 205: invalid keyword SEMI_ELLIPTICAL at line 1128 of [XSECT] section:
  815pipe2         SEMI_ELLIPTICAL 2.0              0.0        0          0          1

  
  ERROR 205: invalid keyword SEMI_ELLIPTICAL at line 1129 of [XSECT] section:
  814pipe          SEMI_ELLIPTICAL 2.0              0.0        0          0          1

  
  ERROR 205: invalid keyword SEMI_ELLIPTICAL at line 1131 of [XSECT] section:
  810pipe1         SEMI_ELLIPTICAL 4.0              0.0        0          0          1

  
  ERROR 205: invalid keyword SEMI_ELLIPTICAL at line 1133 of [XSECT] section:
  810pipe2         SEMI_ELLIPTICAL 3.0              0.0        0          0          1

  
  ERROR 205: invalid keyword SEMI_ELLIPTICAL at line 1134 of [XSECT] section:
  789pipe          SEMI_ELLIPTICAL 4.0              0.0        0          0          1


  Analysis begun on:  Tue Jun 23 21:16:22 2026
  Analysis ended on:  Tue Jun 23 21:16:22 2026
  Total elapsed time: < 1 sec