
  EPA STORM WATER MANAGEMENT MODEL - VERSION 5.2 (Build 5.2.4)
  ------------------------------------------------------------

  
  ERROR 205: invalid keyword SEMI_ELLIPTICAL at line 318 of [XSECT] section:
  TW01220          SEMI_ELLIPTICAL 8.0              0.0        0          0          1

  
  ERROR 205: invalid keyword SEMI_ELLIPTICAL at line 319 of [XSECT] section:
  TW01240          SEMI_ELLIPTICAL 9.0              0.0        0          0          1

  
  ERROR 205: invalid keyword SEMI_ELLIPTICAL at line 320 of [XSECT] section:
  TW01260          SEMI_ELLIPTICAL 8.0              0.0        0          0          1

  
  ERROR 205: invalid keyword SEMI_ELLIPTICAL at line 321 of [XSECT] section:
  TW01280          SEMI_ELLIPTICAL 9.0              0.0        0          0          1

  
  ERROR 205: invalid keyword SEMI_ELLIPTICAL at line 325 of [XSECT] section:
  TW01350          SEMI_ELLIPTICAL 5.0              0.0        0          0          1

  
  ERROR 205: invalid keyword SEMI_ELLIPTICAL at line 326 of [XSECT] section:
  TW01355          SEMI_ELLIPTICAL 1.5              0.0        0          0          1

  
  ERROR 205: invalid keyword SEMI_ELLIPTICAL at line 327 of [XSECT] section:
  TW01357          SEMI_ELLIPTICAL 6.5              0.0        0          0          1

  
  ERROR 205: invalid keyword SEMI_ELLIPTICAL at line 328 of [XSECT] section:
  TW01360          SEMI_ELLIPTICAL 4.5              0.0        0          0          1

  
  ERROR 205: invalid keyword SEMI_ELLIPTICAL at line 329 of [XSECT] section:
  TW01370          SEMI_ELLIPTICAL 4.5              0.0        0          0          1

  
  ERROR 205: invalid keyword SEMI_ELLIPTICAL at line 330 of [XSECT] section:
  TW01380          SEMI_ELLIPTICAL 4.5              0.0        0          0          1

  
  ERROR 205: invalid keyword SEMI_ELLIPTICAL at line 331 of [XSECT] section:
  TW01385          SEMI_ELLIPTICAL 4.0              0.0        0          0          1

  
  ERROR 205: invalid keyword SEMI_ELLIPTICAL at line 332 of [XSECT] section:
  TW01390          SEMI_ELLIPTICAL 3.5              0.0        0          0          1


  Analysis begun on:  Tue Jun 23 21:11:11 2026
  Analysis ended on:  Tue Jun 23 21:11:11 2026
  Total elapsed time: < 1 sec