
  EPA STORM WATER MANAGEMENT MODEL - VERSION 5.2 (Build 5.2.4)
  ------------------------------------------------------------

  
  ERROR 209: undefined object CustomShape at line 318 of [XSECT] section:
  TW01220          CUSTOM       8.0              CustomShape 0          0          1

  
  ERROR 209: undefined object CustomShape at line 319 of [XSECT] section:
  TW01240          CUSTOM       9.0              CustomShape 0          0          1

  
  ERROR 209: undefined object CustomShape at line 320 of [XSECT] section:
  TW01260          CUSTOM       8.0              CustomShape 0          0          1

  
  ERROR 209: undefined object CustomShape at line 321 of [XSECT] section:
  TW01280          CUSTOM       9.0              CustomShape 0          0          1

  
  ERROR 209: undefined object CustomShape at line 325 of [XSECT] section:
  TW01350          CUSTOM       5.0              CustomShape 0          0          1

  
  ERROR 209: undefined object CustomShape at line 326 of [XSECT] section:
  TW01355          CUSTOM       1.5              CustomShape 0          0          1

  
  ERROR 209: undefined object CustomShape at line 327 of [XSECT] section:
  TW01357          CUSTOM       6.5              CustomShape 0          0          1

  
  ERROR 209: undefined object CustomShape at line 328 of [XSECT] section:
  TW01360          CUSTOM       4.5              CustomShape 0          0          1

  
  ERROR 209: undefined object CustomShape at line 329 of [XSECT] section:
  TW01370          CUSTOM       4.5              CustomShape 0          0          1

  
  ERROR 209: undefined object CustomShape at line 330 of [XSECT] section:
  TW01380          CUSTOM       4.5              CustomShape 0          0          1

  
  ERROR 209: undefined object CustomShape at line 331 of [XSECT] section:
  TW01385          CUSTOM       4.0              CustomShape 0          0          1

  
  ERROR 209: undefined object CustomShape at line 332 of [XSECT] section:
  TW01390          CUSTOM       3.5              CustomShape 0          0          1


  Analysis begun on:  Tue Jun 23 21:10:59 2026
  Analysis ended on:  Tue Jun 23 21:10:59 2026
  Total elapsed time: < 1 sec