
  EPA STORM WATER MANAGEMENT MODEL - VERSION 5.2 (Build 5.2.4)
  ------------------------------------------------------------

   user5 - FORCE_MAIN (H-W) shape test 
  
  ****************
  Analysis Options
  ****************
  Flow Units ............... CFS
  Process Models:
    Rainfall/Runoff ........ YES
    RDII ................... NO
    Snowmelt ............... NO
    Groundwater ............ NO
    Flow Routing ........... YES
    Ponding Allowed ........ NO
    Water Quality .......... NO
  Infiltration Method ...... HORTON
  Flow Routing Method ...... DYNWAVE
  Surcharge Method ......... EXTRAN
  Starting Date ............ 08/11/1998 00:00:00
  Ending Date .............. 08/11/1998 23:59:00
  Antecedent Dry Days ...... 0.0
  Report Time Step ......... 00:05:00
  Wet Time Step ............ 00:01:00
  Dry Time Step ............ 00:01:00
  Routing Time Step ........ 30.00 sec
  Variable Time Step ....... YES
  Maximum Trials ........... 8
  Number of Threads ........ 1
  Head Tolerance ........... 0.005000 ft
  
  
  **************************        Volume         Depth
  Runoff Quantity Continuity     acre-feet        inches
  **************************     ---------       -------
  Total Precipitation ......       287.426         2.930
  Evaporation Loss .........         4.314         0.044
  Infiltration Loss ........       108.755         1.109
  Surface Runoff ...........       173.623         1.770
  Final Storage ............         0.801         0.008
  Continuity Error (%) .....        -0.023
  
  
  **************************        Volume        Volume
  Flow Routing Continuity        acre-feet      10^6 gal
  **************************     ---------     ---------
  Dry Weather Inflow .......         0.000         0.000
  Wet Weather Inflow .......       173.492        56.535
  Groundwater Inflow .......         0.000         0.000
  RDII Inflow ..............         0.000         0.000
  External Inflow ..........       121.489        39.589
  External Outflow .........       224.520        73.163
  Flooding Loss ............         0.000         0.000
  Evaporation Loss .........         0.278         0.091
  Exfiltration Loss ........         0.000         0.000
  Initial Stored Volume ....         3.241         1.056
  Final Stored Volume ......        79.515        25.911
  Continuity Error (%) .....        -2.043
  
  
  *************************
  Highest Continuity Errors
  *************************
  Node 3SB22 (34.86%)
  Node 4SB21 (25.81%)
  Node 2SB21 (17.60%)
  Node 5SB21_OF (5.99%)
  Node 0.10_RM (5.28%)
  
  
  ***************************
  Time-Step Critical Elements
  ***************************
  Link Brad_Out (89.74%)
  Link 789pipe (6.13%)
  Link DEERWPIPE (2.41%)
  
  
  ********************************
  Highest Flow Instability Indexes
  ********************************
  Link 892pipe (63)
  Link 812pipe (44)
  Link 36inch_2 (31)
  Link 771pipe (25)
  Link 695 (20)
  
  
  *********************************
  Most Frequent Nonconverging Nodes
  *********************************
  Node O.O_RM (0.07%)
  Node 16SB1 (0.01%)
  Node 15SB11 (0.00%)
  Node 1122 (0.00%)
  Node 17SB11 (0.00%)
  
  
  *************************
  Routing Time Step Summary
  *************************
  Minimum Time Step           :     0.50 sec
  Average Time Step           :     2.01 sec
  Maximum Time Step           :    30.00 sec
  % of Time in Steady State   :     0.00
  Average Iterations per Step :     2.01
  % of Steps Not Converging   :     0.07
  Time Step Frequencies       :
     30.000 - 13.228 sec      :     0.00 %
     13.228 -  5.833 sec      :     0.04 %
      5.833 -  2.572 sec      :     0.99 %
      2.572 -  1.134 sec      :    96.35 %
      1.134 -  0.500 sec      :     2.62 %
  
  
  ***************************
  Subcatchment Runoff Summary
  ***************************
  
  ------------------------------------------------------------------------------------------------------------------------------
                            Total      Total      Total      Total     Imperv       Perv      Total       Total     Peak  Runoff
                           Precip      Runon       Evap      Infil     Runoff     Runoff     Runoff      Runoff   Runoff   Coeff
  Subcatchment                 in         in         in         in         in         in         in    10^6 gal      CFS
  ------------------------------------------------------------------------------------------------------------------------------
  1SB5#1                     2.93       0.00       0.05       0.90       1.26       0.72       1.97        0.29    15.42   0.673
  2SB5#1                     2.93       0.00       0.05       0.89       1.31       0.67       1.98        0.18     8.67   0.675
  1SB23#1                    2.93       0.00       0.05       0.86       1.35       0.65       2.01        0.42    20.14   0.685
  2SB23#1                    2.93       0.00       0.04       1.07       0.96       0.85       1.81        0.32    17.41   0.619
  4SB23#1                    2.93       0.00       0.05       0.92       1.26       0.68       1.95        0.22     9.99   0.664
  3SB23#1                    2.93       0.00       0.04       0.96       1.15       0.77       1.92        0.31    16.80   0.655
  49SB1#1                    2.93       0.00       0.03       1.40       0.47       1.03       1.50        0.53    21.78   0.511
  51SB1#1                    2.93       0.00       0.05       0.77       1.39       0.72       2.11        0.07     5.76   0.720
  1121#1                     2.93       0.00       0.05       1.21       0.92       0.75       1.67        0.97    36.00   0.570
  6SB3#1                     2.93       0.00       0.04       1.13       0.85       0.91       1.76        0.16     9.09   0.601
  4SB3#1                     2.93       0.00       0.05       0.96       1.15       0.76       1.91        0.15     7.81   0.653
  5SB3#1                     2.93       0.00       0.04       0.98       1.08       0.82       1.90        0.13     7.58   0.648
  3SB3#1                     2.93       0.00       0.05       0.79       1.37       0.72       2.09        0.13     9.67   0.712
  2SB3#1                     2.93       0.00       0.04       0.96       1.10       0.82       1.92        0.13     8.37   0.655
  8SB3_OF#1                  2.93       0.00       0.02       1.40       0.27       1.23       1.50        0.18     9.63   0.514
  1SB4#1                     2.93       0.00       0.05       0.86       1.27       0.75       2.02        0.12     8.27   0.690
  2SB4#1                     2.93       0.00       0.05       0.85       1.31       0.71       2.02        0.08     5.08   0.691
  44SB1#1                    2.93       0.00       0.05       1.14       1.05       0.68       1.73        0.28     9.73   0.589
  45SB1#1                    2.93       0.00       0.04       1.14       0.92       0.83       1.75        0.25    11.51   0.596
  43SB1#1                    2.93       0.00       0.05       0.81       1.42       0.64       2.06        0.25    13.39   0.704
  8SB1#1                     2.93       0.00       0.04       1.43       0.62       0.83       1.45        0.40    13.55   0.495
  6SB1#1                     2.93       0.00       0.03       1.56       0.22       1.13       1.34        0.27     9.41   0.459
  2SB1#1                     2.93       0.00       0.09       0.26       2.33       0.19       2.53        0.22     5.27   0.863
  3SB1#1                     2.93       0.00       0.05       1.15       0.97       0.75       1.72        0.33    12.90   0.587
  4SB1#1                     2.93       0.00       0.04       1.33       0.78       0.77       1.54        0.46    15.77   0.527
  5SB1#1                     2.93       0.00       0.04       1.29       0.67       0.93       1.60        0.70    30.55   0.546
  7SB1#1                     2.93       0.00       0.04       1.27       0.74       0.88       1.62        0.45    19.06   0.552
  9SB1#1                     2.93       0.00       0.04       1.46       0.55       0.88       1.43        0.46    15.86   0.487
  11SB1#1                    2.93       0.00       0.06       0.73       1.58       0.55       2.13        0.36    15.65   0.726
  32SB1#1                    2.93       0.00       0.06       0.83       1.45       0.57       2.03        0.23     9.30   0.691
  34SB1#1                    2.93       0.00       0.05       0.89       1.37       0.60       1.97        0.47    18.64   0.672
  39SB1#1                    2.93       0.00       0.05       1.03       1.11       0.73       1.84        0.45    20.07   0.628
  38SB1#1                    2.93       0.00       0.05       0.95       1.28       0.63       1.91        0.19     7.22   0.653
  37SB1#1                    2.93       0.00       0.04       1.08       0.94       0.87       1.80        0.17     9.54   0.616
  35SB1#1                    2.93       0.00       0.05       1.00       1.11       0.77       1.88        0.29    14.94   0.642
  33SB1#1                    2.93       0.00       0.05       1.00       1.12       0.76       1.88        0.23    11.32   0.641
  12SB1#1                    2.93       0.00       0.05       1.06       1.11       0.70       1.81        0.31    12.34   0.618
  22SB1#1                    2.93       0.00       0.04       1.04       1.06       0.78       1.84        0.28    13.81   0.627
  21SB1#1                    2.93       0.00       0.04       1.18       0.89       0.81       1.71        0.53    22.72   0.582
  14SB1#1                    2.93       0.00       0.05       1.09       1.13       0.64       1.77        0.48    16.28   0.604
  13SB1#1                    2.93       0.00       0.04       1.10       0.97       0.81       1.79        0.37    17.63   0.609
  23SB1#1                    2.93       0.00       0.05       1.23       0.94       0.69       1.64        0.47    15.64   0.558
  20SB1#1                    2.93       0.00       0.04       1.11       0.93       0.84       1.78        0.43    21.36   0.607
  24SB1#1                    2.93       0.00       0.04       0.92       1.15       0.82       1.97        0.20    14.04   0.672
  26SB1#1                    2.93       0.00       0.04       1.08       0.91       0.90       1.80        0.20    11.53   0.616
  27SB1#1                    2.93       0.00       0.04       1.01       1.05       0.82       1.87        0.25    13.97   0.639
  28SB1#1                    2.93       0.00       0.05       1.02       1.16       0.69       1.85        0.51    20.81   0.631
  25SB1#1                    2.93       0.00       0.05       1.06       1.11       0.70       1.81        0.59    23.29   0.617
  19SB1#1                    2.93       0.00       0.04       1.07       1.03       0.77       1.81        0.27    12.26   0.616
  18SB1#1                    2.93       0.00       0.05       0.80       1.43       0.64       2.07        0.17     9.02   0.705
  15SB1#1                    2.93       0.00       0.05       1.00       1.12       0.76       1.87        0.21    10.34   0.639
  31SB1#1                    2.93       0.00       0.06       0.71       1.65       0.48       2.14        0.62    21.95   0.729
  40SB1#1                    2.93       0.00       0.04       1.22       0.77       0.90       1.66        0.70    32.25   0.568
  41SB1#1                    2.93       0.00       0.03       1.72       0.06       1.12       1.18        0.45    12.56   0.403
  46SB1#1                    2.93       0.00       0.04       1.07       1.03       0.77       1.81        0.31    14.29   0.617
  4SB5_OF#1                  2.93       0.00       0.03       1.24       0.49       1.17       1.67        0.15    11.61   0.569
  15SB6#1                    2.93       0.00       0.05       0.90       1.26       0.71       1.97        0.57    30.30   0.674
  14SB6#1                    2.93       0.00       0.03       1.61       0.20       1.09       1.29        0.17     5.05   0.442
  12SB6#1                    2.93       0.00       0.07       0.18       2.49       0.18       2.67        0.32    24.55   0.910
  19SB6#1                    2.93       0.00       0.04       1.09       0.91       0.89       1.80        0.24    13.81   0.613
  26SB6#1                    2.93       0.00       0.04       0.94       1.16       0.79       1.94        0.14     8.40   0.663
  25SB6#1                    2.93       0.00       0.04       1.02       1.08       0.78       1.86        0.39    19.74   0.634
  24SB6#1                    2.93       0.00       0.04       0.99       1.11       0.77       1.89        0.49    25.79   0.643
  20SB6#1                    2.93       0.00       0.04       1.09       0.86       0.94       1.80        0.18    11.19   0.615
  18SB6#1                    2.93       0.00       0.04       1.16       0.88       0.85       1.73        0.22    10.14   0.589
  17SB6#1                    2.93       0.00       0.06       0.69       1.60       0.56       2.17        0.21    10.76   0.739
  16SB6#1                    2.93       0.00       0.05       0.90       1.28       0.69       1.98        0.43    21.81   0.674
  11SB6#1                    2.93       0.00       0.05       0.85       1.39       0.62       2.01        0.37    16.27   0.686
  10SB6#1                    2.93       0.00       0.07       0.43       2.06       0.33       2.40        0.58    21.37   0.819
  21SB6#1                    2.93       0.00       0.04       1.01       1.08       0.79       1.87        0.23    12.48   0.639
  22SB6#1                    2.93       0.00       0.04       0.96       1.14       0.78       1.92        0.28    15.91   0.655
  23SB6#1                    2.93       0.00       0.05       0.86       1.32       0.70       2.02        0.37    20.96   0.688
  13SB6#1                    2.93       0.00       0.05       1.07       1.05       0.75       1.81        0.61    26.90   0.617
  7SB6#1                     2.93       0.00       0.06       0.53       1.89       0.43       2.32        0.18     8.55   0.792
  8SB6#1                     2.93       0.00       0.04       1.26       0.19       1.44       1.63        0.30    11.27   0.556
  5SB6#1                     2.93       0.00       0.03       1.35       0.38       1.17       1.55        0.24    13.02   0.530
  4SB6#1                     2.93       0.00       0.04       1.10       1.00       0.77       1.78        0.25    10.94   0.606
  3SB6#1                     2.93       0.00       0.04       1.04       1.04       0.80       1.84        0.21    10.81   0.628
  1SB22#1                    2.93       0.00       0.05       0.89       1.32       0.66       1.98        0.22    10.60   0.677
  2SB22#1                    2.93       0.00       0.03       1.64       0.29       0.96       1.25        0.20     5.37   0.428
  2SB21#1                    2.93       0.00       0.04       1.54       0.42       0.94       1.35        0.21     6.67   0.462
  1SB21#1                    2.93       0.00       0.05       0.85       1.34       0.69       2.03        0.19    10.99   0.692
  1SB20#1                    2.93       0.00       0.05       0.83       1.43       0.60       2.03        0.25    10.91   0.693
  1SB7#1                     2.93       0.00       0.03       1.24       0.68       0.97       1.65        0.25    12.37   0.564
  2SB7#1                     2.93       0.00       0.05       0.94       1.18       0.76       1.94        0.08     4.54   0.661
  3SB7#1                     2.93       0.00       0.03       1.26       0.66       0.98       1.63        0.09     4.54   0.557
  5SB7_OF#1                  2.93       0.00       0.02       1.39       0.23       1.29       1.52        0.26    17.39   0.519
  2SB20_OF#1                 2.93       0.00       0.05       0.89       1.25       0.73       1.98        0.33    18.61   0.676
  1SB19#1                    2.93       0.00       0.06       0.74       1.31       0.82       2.12        0.37    16.15   0.724
  2SB19#1                    2.93       0.00       0.03       1.67       0.11       1.13       1.24        0.11     3.36   0.422
  4SB19_OF#1                 2.93       0.00       0.02       1.41       0.18       1.32       1.50        0.11     7.47   0.512
  4SB9#1                     2.93       0.00       0.03       1.42       0.45       1.02       1.48        0.61    24.19   0.505
  3SB9#1                     2.93       0.00       0.03       1.45       0.30       1.15       1.46        0.26    11.10   0.497
  1SB9#1                     2.93       0.00       0.04       1.20       0.83       0.85       1.68        0.41    18.25   0.574
  SB1018_OF#1                2.93       0.00       0.02       1.35       0.27       1.29       1.56        0.10     7.37   0.532
  SB1018_OF#2                2.93       0.00       0.03       1.06       0.80       1.04       1.84        0.21    18.73   0.628
  SB1018_OF#3                2.93       0.00       0.04       0.88       1.20       0.80       2.00        0.65    47.16   0.682
  17SB11#1                   2.93       0.00       0.05       1.10       1.04       0.73       1.77        1.15    46.00   0.605
  17SB11#2                   2.93       0.00       0.04       1.33       0.62       0.94       1.56        1.58    65.74   0.532
  17SB11#3                   2.93       0.00       0.06       0.57       1.76       0.54       2.30        0.57    46.53   0.785
  16SB11#1                   2.93       0.00       0.05       1.09       1.03       0.75       1.78        1.23    52.12   0.608
  15SB11#1                   2.93       0.00       0.04       1.24       0.80       0.85       1.65        0.76    32.03   0.562
  14SB11#1                   2.93       0.00       0.04       1.26       0.78       0.85       1.62        0.50    20.65   0.554
  13SB11#1                   2.93       0.00       0.04       1.23       0.73       0.93       1.66        0.82    39.58   0.568
  5SB11#1                    2.93       0.00       0.06       0.53       1.69       0.63       2.32        0.57    28.33   0.793
  11SB11#1                   2.93       0.00       0.04       1.15       0.85       0.89       1.74        0.35    17.75   0.593
  10SB11#1                   2.93       0.00       0.04       1.15       0.83       0.91       1.74        0.36    19.04   0.593
  9SB11#1                    2.93       0.00       0.03       1.39       0.42       1.10       1.51        0.24    10.70   0.516
  12SB11#1                   2.93       0.00       0.07       0.43       2.06       0.35       2.41        0.41    17.74   0.822
  8SB11#1                    2.93       0.00       0.05       0.59       1.73       0.55       2.28        0.19    14.41   0.777
  7SB11#1                    2.93       0.00       0.07       0.34       2.19       0.31       2.50        0.28    16.05   0.854
  6SB11#1                    2.93       0.00       0.07       0.47       2.01       0.35       2.36        0.60    21.44   0.805
  4SB11#1                    2.93       0.00       0.07       0.50       1.75       0.59       2.34        0.73    32.52   0.799
  2SB11#1                    2.93       0.00       0.07       0.52       1.75       0.57       2.32        0.81    30.07   0.791
  2SB11#2                    2.93       0.00       0.06       0.69       1.35       0.82       2.17        1.00    52.83   0.742
  5SB17#1                    2.93       0.00       0.04       1.08       1.03       0.77       1.80        0.41    18.47   0.615
  8SB17#1                    2.93       0.00       0.04       1.25       0.76       0.89       1.64        0.39    17.35   0.560
  7SB17#1                    2.93       0.00       0.04       1.10       0.98       0.80       1.78        0.35    16.37   0.607
  6SB17#1                    2.93       0.00       0.04       1.19       0.77       0.92       1.70        0.25    12.73   0.579
  9SB17#1                    2.93       0.00       0.03       1.34       0.47       1.09       1.56        0.23    11.41   0.534
  16SB17#1                   2.93       0.00       0.04       1.27       0.73       0.89       1.62        0.18     7.93   0.552
  10SB17#1                   2.93       0.00       0.03       1.52       0.29       1.09       1.38        0.27     9.34   0.471
  14SB17#1                   2.93       0.00       0.04       1.30       0.76       0.82       1.58        0.19     7.24   0.539
  11SB17#1                   2.93       0.00       0.04       1.14       0.85       0.90       1.75        0.23    12.01   0.596
  13SB17#1                   2.93       0.00       0.04       1.84       0.15       0.90       1.05        0.10     2.06   0.358
  17SB17#1                   2.93       0.00       0.04       1.60       0.50       0.78       1.28        0.32     8.94   0.437
  4SB17#1                    2.93       0.00       0.04       0.97       1.12       0.80       1.91        0.36    20.76   0.652
  3SB17#1                    2.93       0.00       0.05       0.85       1.38       0.64       2.02        0.35    16.24   0.688
  2SB17#1                    2.93       0.00       0.06       0.83       1.13       0.90       2.03        0.51    21.06   0.693
  SB1216_OF#1                2.93       0.00       0.05       0.75       1.25       0.86       2.12        0.43    20.99   0.722
  SB1216_OF#2                2.93       0.00       0.07       0.17       2.32       0.36       2.68        0.28    22.85   0.913
  1SB14#1                    2.93       0.00       0.04       0.94       1.16       0.78       1.94        0.18    10.83   0.661
  2SB14#1                    2.93       0.00       0.04       1.26       0.70       0.93       1.63        0.71    32.21   0.556
  3SB14#1                    2.93       0.00       0.04       1.20       0.78       0.91       1.69        0.28    13.73   0.577
  4SB14#1                    2.93       0.00       0.04       1.12       0.82       0.95       1.77        0.26    15.57   0.603
  7SB14#1                    2.93       0.00       0.02       1.55       0.17       1.18       1.36        0.18     6.68   0.463
  6SB14#1                    2.93       0.00       0.05       0.81       1.38       0.68       2.06        0.18    10.78   0.704
  5SB14#1                    2.93       0.00       0.02       1.61       0.12       1.18       1.30        0.13     4.48   0.443
  9SB14#1                    2.93       0.00       0.04       1.08       0.97       0.84       1.81        0.30    15.72   0.617
  8SB14#1                    2.93       0.00       0.05       0.81       1.37       0.70       2.07        0.12     7.96   0.705
  10SB14#1                   2.93       0.00       0.06       0.73       1.63       0.49       2.11        0.49    16.74   0.722
  11SB14_OF#1                2.93       0.00       0.03       1.71       0.13       1.06       1.19        0.59    15.34   0.407
  11SB14_OF#2                2.93       0.00       0.05       0.78       1.21       0.88       2.09        0.95    45.01   0.714
  0.10_UP#1                  2.93       0.00       0.04       1.30       0.74       0.85       1.58        4.85   190.21   0.540
  3SB21#1                    2.93       0.00       0.03       1.50       0.40       0.99       1.39        0.16     5.45   0.476
  
  
  ******************
  Node Depth Summary
  ******************
  
  ---------------------------------------------------------------------------------
                                 Average  Maximum  Maximum  Time of Max    Reported
                                   Depth    Depth      HGL   Occurrence   Max Depth
  Node                 Type         Feet     Feet     Feet  days hr:min        Feet
  ---------------------------------------------------------------------------------
  0.10_RM              JUNCTION     9.31     9.93   650.53     0  01:09        9.93
  0.10_UP              JUNCTION     9.23     9.99   650.69     0  01:09        9.99
  0.15_RM              JUNCTION     6.08     6.98   650.88     0  01:09        6.98
  102                  JUNCTION     0.20     3.09   687.59     0  00:20        3.09
  1050                 JUNCTION     2.04     5.34   678.67     0  02:38        5.34
  10SB1                JUNCTION     1.25     5.54   682.08     0  00:39        5.54
  10SB11               JUNCTION     0.11     1.19   693.99     0  00:15        1.19
  10SB14               JUNCTION     0.67     7.73   659.73     0  00:27        7.73
  10SB17               JUNCTION     0.47     6.41   672.44     0  00:30        6.40
  10SB6                JUNCTION     0.63     7.14   688.06     0  00:28        7.14
  1118                 JUNCTION     1.84     9.35   681.25     0  00:36        9.15
  1119                 JUNCTION     1.87     9.46   681.33     0  00:35        9.32
  1120                 JUNCTION     1.90     9.83   681.66     0  00:36        9.72
  1121                 JUNCTION     1.93     9.95   681.75     0  00:35        9.82
  1122                 JUNCTION     1.96    10.00   681.77     0  00:36        9.86
  1123                 JUNCTION     1.99     9.74   681.47     0  00:36        9.64
  1124                 JUNCTION     2.01     9.51   681.21     0  00:36        9.47
  1125                 JUNCTION     2.04     9.51   681.18     0  00:36        9.37
  1126                 JUNCTION     2.08     9.85   681.48     0  00:36        8.98
  1127                 JUNCTION     2.11     9.91   681.51     0  00:36        8.99
  1128                 JUNCTION     1.54     7.00   678.59     0  00:42        6.23
  11SB1                JUNCTION     0.11     0.83   683.96     0  00:21        0.83
  11SB11               JUNCTION     0.08     0.88   695.68     0  00:13        0.87
  11SB14_OF            JUNCTION     4.61     6.79   652.29     0  01:07        6.77
  11SB17               JUNCTION     0.50     7.35   664.37     0  00:44        7.35
  11SB6                JUNCTION     0.65     7.24   691.24     0  00:21        7.24
  12SB1                JUNCTION     0.10     0.78   692.78     0  00:21        0.78
  12SB11               JUNCTION     0.09     0.64   744.94     0  00:21        0.64
  12SB6                JUNCTION     0.18     2.26   692.26     0  00:07        2.17
  13SB1                JUNCTION     0.19     1.40   689.80     0  00:24        1.40
  13SB11               JUNCTION     1.01    11.30   694.10     0  00:27       11.29
  13SB17               JUNCTION     0.81    10.56   663.74     0  00:47       10.54
  13SB6                JUNCTION     0.15     1.39   697.39     0  00:20        1.39
  14SB1                JUNCTION     0.16     1.26   696.26     0  00:22        1.26
  14SB11               JUNCTION     0.98    10.84   699.29     0  00:25       10.84
  14SB17               JUNCTION     0.82    10.22   666.16     0  00:49       10.22
  14SB6                JUNCTION     0.22     1.92   695.92     0  00:20        1.92
  15SB1                JUNCTION     0.39     2.53   681.03     0  00:24        2.53
  15SB11               JUNCTION     0.98    10.94   701.69     0  00:23       10.92
  15SB17               JUNCTION     0.68     7.95   666.95     0  00:39        7.95
  15SB6                JUNCTION     0.31     3.42   703.42     0  00:15        3.42
  16SB1                JUNCTION     1.14     5.29   680.79     0  00:31        5.29
  16SB11               JUNCTION     1.00    11.39   703.54     0  00:16       11.38
  16SB17               JUNCTION     0.08     0.68   669.18     0  00:15        0.67
  16SB6                JUNCTION     0.56     6.90   692.80     0  00:21        6.90
  17SB1                JUNCTION     1.19     4.74   680.15     0  00:31        4.72
  17SB11               JUNCTION     0.96    11.41   705.01     0  00:12       11.39
  17SB17               JUNCTION     0.46     6.03   668.42     0  00:30        6.02
  17SB6                JUNCTION     0.51     7.59   700.59     0  00:19        7.59
  18SB1                JUNCTION     0.22     1.86   682.76     0  00:21        1.86
  18SB17               JUNCTION     0.77     9.37   661.18     0  00:58        9.36
  18SB6                JUNCTION     0.38     8.26   709.26     0  00:17        8.24
  19SB1                JUNCTION     0.08     0.78   683.78     0  00:15        0.77
  19SB17               JUNCTION     2.26     7.90   656.25     0  01:03        7.89
  19SB6                JUNCTION     0.09     0.75   718.75     0  00:18        0.75
  1SB11_OF             JUNCTION     2.29     8.12   658.75     0  01:06        8.11
  1SB14                JUNCTION     0.06     0.63   691.13     0  00:13        0.63
  1SB17_OF             JUNCTION     2.45     6.41   654.37     0  01:07        6.39
  1SB19                JUNCTION     0.12     0.97   670.97     0  00:21        0.96
  1SB20                JUNCTION     0.08     0.72   678.72     0  00:21        0.72
  1SB21                JUNCTION     0.10     0.63   677.63     0  00:15        0.63
  1SB22                JUNCTION     0.10     0.65   679.65     0  00:16        0.64
  1SB23                JUNCTION     0.09     0.87   682.87     0  00:16        0.87
  1SB3_MIL             JUNCTION     0.37     2.69   682.60     0  00:36        2.69
  1SB4                 JUNCTION     0.05     0.60   683.15     0  00:12        0.59
  1SB5                 JUNCTION     0.08     0.81   678.41     0  00:15        0.81
  1SB6_OF              JUNCTION     6.52     8.19   674.17     0  01:02        8.19
  1SB7                 JUNCTION     0.07     0.75   679.16     0  00:13        0.75
  1SB9                 JUNCTION     0.14     2.18   678.28     0  00:15        2.18
  20SB1                JUNCTION     0.14     1.04   689.04     0  00:21        1.04
  20SB6                JUNCTION     0.10     1.02   710.52     0  00:15        1.02
  21SB1                JUNCTION     0.13     1.26   701.76     0  00:16        1.25
  21SB6                JUNCTION     0.06     0.68   710.68     0  00:15        0.68
  22SB1                JUNCTION     0.06     0.66   708.66     0  00:15        0.66
  22SB6                JUNCTION     0.08     0.87   706.87     0  00:15        0.87
  23SB1                JUNCTION     0.10     0.69   705.69     0  00:21        0.68
  23SB6                JUNCTION     0.14     1.64   698.64     0  00:16        1.63
  24SB1                JUNCTION     0.04     0.59   706.59     0  00:12        0.58
  24SB6                JUNCTION     0.11     1.08   717.48     0  00:15        1.08
  25SB1                JUNCTION     0.10     0.83   696.83     0  00:21        0.82
  25SB6                JUNCTION     0.10     1.04   719.84     0  00:15        1.04
  26SB1                JUNCTION     0.06     0.73   697.73     0  00:12        0.72
  26SB6                JUNCTION     0.05     0.57   724.47     0  00:12        0.57
  27SB1                JUNCTION     0.09     1.15   691.15     0  00:12        1.14
  28SB1                JUNCTION     0.12     1.21   689.21     0  00:15        1.21
  29SB1                JUNCTION     0.17     1.55   685.55     0  00:17        1.55
  2SB1                 JUNCTION     0.09     0.56   698.99     0  00:30        0.56
  2SB11                JUNCTION     1.16    12.68   677.13     0  00:38       12.68
  2SB14                JUNCTION     0.19     1.80   685.50     0  00:22        1.79
  2SB17                JUNCTION     0.52     6.05   674.18     0  00:24        6.05
  2SB19                JUNCTION     0.06     0.46   669.77     0  00:30        0.46
  2SB20_OF             JUNCTION    11.92    13.69   674.17     0  01:04       13.68
  2SB21                JUNCTION     4.76     5.67   673.27     0  02:42        5.63
  2SB22                JUNCTION     2.34     3.15   673.25     0  02:41        3.14
  2SB23                JUNCTION     0.08     0.88   678.88     0  00:15        0.88
  2SB2_MIL             JUNCTION     0.67     6.91   682.51     0  00:37        5.36
  2SB3                 JUNCTION     0.66     4.83   681.96     0  00:35        4.83
  2SB4                 JUNCTION     0.10     1.04   679.59     0  00:15        1.04
  2SB5                 JUNCTION     0.07     0.63   678.23     0  00:16        0.62
  2SB6                 JUNCTION     2.28     5.05   675.53     0  01:00        5.04
  2SB7                 JUNCTION     0.05     0.53   678.49     0  00:12        0.52
  2SB9                 JUNCTION     0.09     1.13   668.13     0  00:17        1.13
  30SB1                JUNCTION     0.24     1.97   684.07     0  00:19        1.97
  31SB1                JUNCTION     0.14     0.91   684.91     0  00:22        0.91
  32SB1                JUNCTION     0.30     2.30   680.47     0  00:41        2.29
  33SB1                JUNCTION     1.00     3.35   678.67     0  02:36        3.35
  34SB1                JUNCTION     0.10     0.78   686.78     0  00:21        0.77
  35SB1                JUNCTION     0.18     1.76   681.77     0  01:00        1.76
  36SB1                JUNCTION     0.37     3.26   681.77     0  00:59        3.26
  37SB1                JUNCTION     0.28     2.43   681.77     0  00:58        2.43
  38SB1                JUNCTION     0.12     0.98   683.18     0  00:21        0.97
  39SB1                JUNCTION     0.10     0.89   687.84     0  00:16        0.89
  3SB1                 JUNCTION     0.14     1.10   698.35     0  00:21        1.09
  3SB14                JUNCTION     0.15     1.30   683.30     0  00:23        1.30
  3SB17                JUNCTION     0.14     1.29   676.29     0  00:19        1.29
  3SB19                JUNCTION     0.10     1.05   665.87     0  00:21        1.04
  3SB21                JUNCTION     3.06     3.96   673.31     0  02:41        3.95
  3SB22                JUNCTION     3.78     4.66   673.26     0  02:41        4.65
  3SB23                JUNCTION     0.20     1.75   676.41     0  00:21        1.74
  3SB3                 JUNCTION     0.19     1.40   681.96     0  00:34        1.40
  3SB5                 JUNCTION     0.15     1.40   674.33     0  01:01        1.38
  3SB6                 JUNCTION     0.13     1.17   675.56     0  00:59        1.15
  3SB7                 JUNCTION     0.15     1.45   678.27     0  01:01        1.45
  3SB9                 JUNCTION     0.20     1.56   669.19     0  00:21        1.55
  40SB1                JUNCTION     1.39     3.70   678.70     0  02:36        3.70
  41SB1                JUNCTION     1.81     4.87   678.67     0  02:37        4.87
  42SB1                JUNCTION     2.17     5.81   678.67     0  02:38        5.81
  43SB1                JUNCTION     0.11     0.75   680.15     0  00:12        0.75
  44SB1                JUNCTION     0.10     0.71   681.01     0  00:22        0.70
  45SB1                JUNCTION     0.16     1.15   679.65     0  00:22        1.15
  46SB1                JUNCTION     2.03     5.15   676.66     0  00:59        5.15
  47SB1                JUNCTION     3.15     6.22   676.13     0  00:48        6.22
  48SB1_OF             JUNCTION     3.81     7.08   676.16     0  00:45        7.07
  49SB1                JUNCTION     4.14     5.59   678.21     0  00:39        5.59
  4SB1                 JUNCTION     0.13     1.11   696.67     0  00:21        1.10
  4SB11                JUNCTION     1.29    14.02   682.42     0  00:36       14.01
  4SB14                JUNCTION     0.13     1.17   678.17     0  00:22        1.16
  4SB17                JUNCTION     0.09     1.10   679.10     0  00:13        1.09
  4SB19_OF             JUNCTION     1.71     5.63   664.06     0  01:04        5.63
  4SB21                JUNCTION     5.75     6.66   673.26     0  02:42        6.63
  4SB22_OF             JUNCTION     7.43     9.13   674.17     0  01:02        9.12
  4SB23                JUNCTION     0.08     0.73   676.90     0  00:16        0.73
  4SB3                 JUNCTION     0.06     0.64   684.26     0  00:15        0.64
  4SB5_OF              JUNCTION     5.67     7.44   674.33     0  01:01        7.42
  4SB6                 JUNCTION     0.08     0.72   680.56     0  00:16        0.72
  4SB7                 JUNCTION     0.24     2.66   678.27     0  01:00        2.66
  4SB9                 JUNCTION     0.09     0.85   677.85     0  00:15        0.84
  50SB1                JUNCTION     4.28     5.71   678.18     0  00:39        5.70
  51SB1                JUNCTION     0.12     2.20   677.40     0  00:39        2.19
  52SB1_OF             JUNCTION     3.29     7.51   677.21     0  00:39        7.50
  53SB1_OF             JUNCTION     2.40     7.56   678.26     0  00:42        7.43
  5SB1                 JUNCTION     0.74     7.15   696.57     0  00:36        7.11
  5SB11                JUNCTION     1.06    11.33   686.33     0  00:32       11.32
  5SB14                JUNCTION     0.10     1.02   670.02     0  00:13        1.02
  5SB17                JUNCTION     0.11     0.94   669.04     0  00:18        0.94
  5SB21_OF             JUNCTION     9.42    11.17   674.17     0  01:03       11.16
  5SB23                JUNCTION     0.14     1.22   675.30     0  00:22        1.21
  5SB3                 JUNCTION     0.06     0.63   683.19     0  00:15        0.63
  5SB6                 JUNCTION     0.65     5.30   681.34     0  00:25        5.30
  5SB7_OF              JUNCTION     8.10     9.82   674.17     0  01:04        9.81
  5SB9_OF              JUNCTION     1.62     4.91   660.94     0  01:04        4.91
  6SB1                 JUNCTION     0.04     0.46   704.06     0  00:30        0.46
  6SB11                JUNCTION     0.85    11.06   690.56     0  00:30       11.06
  6SB14                JUNCTION     0.07     0.73   673.73     0  00:15        0.73
  6SB17                JUNCTION     0.31     2.09   668.29     0  00:30        2.09
  6SB3                 JUNCTION     0.06     0.65   680.18     0  00:12        0.65
  745                  JUNCTION     5.77     7.43   674.17     0  01:02        7.43
  747                  JUNCTION     1.38     5.31   664.68     0  01:04        5.29
  751                  JUNCTION     0.54     1.73   673.83     0  01:04        1.73
  754                  JUNCTION     0.44     6.38   686.38     0  00:21        6.37
  756                  JUNCTION     0.29     4.19   683.46     0  00:28        4.17
  757                  JUNCTION     0.61     7.25   689.53     0  00:24        7.25
  758                  JUNCTION     0.66     7.27   690.32     0  00:21        7.26
  7SB1                 JUNCTION     0.83     6.66   690.83     0  00:37        6.59
  7SB11                JUNCTION     0.51     6.91   691.51     0  00:29        6.91
  7SB14                JUNCTION     0.05     0.50   680.50     0  00:21        0.50
  7SB17                JUNCTION     0.09     0.85   669.05     0  00:15        0.85
  7SB3                 JUNCTION     0.62     4.92   679.27     0  00:39        4.92
  7SB6                 JUNCTION     0.38     6.49   685.49     0  00:21        6.46
  800                  JUNCTION     2.93     8.14   658.01     0  01:05        8.13
  802                  JUNCTION     4.70     6.79   652.19     0  01:07        6.78
  818                  JUNCTION     2.60     7.78   678.28     0  00:39        7.76
  822                  JUNCTION     3.81     6.91   675.98     0  00:46        6.90
  824                  JUNCTION     4.30     6.43   674.83     0  00:58        6.42
  8SB1                 JUNCTION     0.19     1.25   683.25     0  00:24        1.25
  8SB11                JUNCTION     0.48     5.07   692.12     0  00:23        5.06
  8SB14                JUNCTION     0.06     0.53   681.53     0  00:18        0.53
  8SB17                JUNCTION     0.09     0.84   671.14     0  00:15        0.84
  8SB3_OF              JUNCTION     2.95     7.50   677.58     0  00:39        7.42
  8SB6                 JUNCTION     0.21     2.55   680.55     0  00:27        2.53
  9SB1                 JUNCTION     0.87     2.50   683.21     0  00:23        2.48
  9SB11                JUNCTION     0.22     1.90   693.40     0  00:22        1.90
  9SB14                JUNCTION     0.18     1.50   669.50     0  00:24        1.50
  9SB17                JUNCTION     0.08     0.79   668.79     0  00:15        0.78
  O.15_UP              JUNCTION     6.02     7.68   651.68     0  01:08        7.67
  SB1018_OF            JUNCTION     1.57     5.77   659.04     0  01:06        5.76
  SB1216_OF            JUNCTION     2.60     6.49   654.29     0  01:07        6.47
  O.O_RM               OUTFALL     12.20    12.20   650.00     0  00:00       12.20
  1SB1                 STORAGE      0.62     3.46   707.91     0  01:08        3.46
  99                   STORAGE      3.61     6.04   688.04     0  00:40        6.02
  
  
  *******************
  Node Inflow Summary
  *******************
  
  -------------------------------------------------------------------------------------------------
                                  Maximum  Maximum                  Lateral       Total        Flow
                                  Lateral    Total  Time of Max      Inflow      Inflow     Balance
                                   Inflow   Inflow   Occurrence      Volume      Volume       Error
  Node                 Type           CFS      CFS  days hr:min    10^6 gal    10^6 gal     Percent
  -------------------------------------------------------------------------------------------------
  0.10_RM              JUNCTION      0.00  1314.62     0  01:08           0        77.3       5.579
  0.10_UP              JUNCTION    190.21  1317.44     0  01:08        4.85        78.5       1.611
  0.15_RM              JUNCTION      0.00  1251.87     0  01:08           0        74.1       0.587
  102                  JUNCTION   1499.76  1499.76     0  00:20        28.8        28.8       0.081
  1050                 JUNCTION      0.00   466.84     0  00:38           0        22.1       0.079
  10SB1                JUNCTION      0.00   233.30     0  00:28           0        12.9      -0.230
  10SB11               JUNCTION     19.04    37.67     0  00:12       0.356       0.702      -0.297
  10SB14               JUNCTION     16.74   115.45     0  00:23       0.486        2.82      -0.131
  10SB17               JUNCTION      9.34     9.34     0  00:21       0.267       0.267       2.856
  10SB6                JUNCTION     21.37   165.44     0  00:25       0.576        3.53      -0.159
  1118                 JUNCTION      0.00  2923.24     0  00:31           0        40.1      -0.335
  1119                 JUNCTION      0.00  2999.42     0  00:35           0        36.4       0.080
  1120                 JUNCTION      0.00  3192.25     0  00:29           0        31.1       0.175
  1121                 JUNCTION     36.00  1990.33     0  00:29       0.965        29.3       0.087
  1122                 JUNCTION      0.00  1175.29     0  00:29           0        29.3       0.096
  1123                 JUNCTION      0.00  1570.58     0  00:30           0        29.8       0.070
  1124                 JUNCTION      0.00  2000.63     0  00:30           0        30.7       0.038
  1125                 JUNCTION      0.00  2020.67     0  00:30           0        31.2       0.106
  1126                 JUNCTION      0.00  2121.27     0  00:42           0        30.5       0.278
  1127                 JUNCTION      0.00  1047.83     0  00:36           0        29.3       0.089
  1128                 JUNCTION      0.00   912.37     0  00:36           0        29.1      -0.036
  11SB1                JUNCTION     15.65    15.65     0  00:21       0.356       0.356      -1.819
  11SB11               JUNCTION     17.75    17.75     0  00:12       0.346       0.346       0.032
  11SB14_OF            JUNCTION     58.10  1254.61     0  01:06        1.54        74.9       0.630
  11SB17               JUNCTION     12.01    12.01     0  00:12       0.228       0.228       0.526
  11SB6                JUNCTION     16.27   153.64     0  00:21       0.372        2.99       0.597
  12SB1                JUNCTION     12.34    12.34     0  00:21       0.309       0.309      -0.496
  12SB11               JUNCTION     17.74    17.74     0  00:21       0.408       0.408       1.072
  12SB6                JUNCTION     24.55    24.55     0  00:12       0.322       0.322       0.500
  13SB1                JUNCTION     17.63    81.57     0  00:21       0.366        1.96      -0.124
  13SB11               JUNCTION     39.58   257.46     0  00:25       0.821        6.42      -0.015
  13SB17               JUNCTION      2.06    72.31     0  00:48       0.105        2.59      -0.282
  13SB6                JUNCTION     26.90    74.44     0  00:16       0.609         1.5       0.159
  14SB1                JUNCTION     16.28    52.05     0  00:21       0.482        1.29       0.349
  14SB11               JUNCTION     20.65   231.99     0  00:23       0.503        5.63       0.564
  14SB17               JUNCTION      7.24    71.06     0  00:36       0.194        2.25      -0.475
  14SB6                JUNCTION      5.05    34.65     0  00:15       0.166       0.734       0.355
  15SB1                JUNCTION     10.34   217.68     0  00:22       0.209        5.24       0.400
  15SB11               JUNCTION     32.03   235.27     0  00:15       0.756        5.25       2.291
  15SB17               JUNCTION      0.00    65.27     0  00:30           0        1.81       0.935
  15SB6                JUNCTION     30.30    30.30     0  00:15       0.566       0.566      -0.405
  16SB1                JUNCTION      0.00   237.94     0  00:24           0        5.84      -0.212
  16SB11               JUNCTION     52.12   204.57     0  00:15        1.23        4.49      -0.009
  16SB17               JUNCTION      7.93     7.93     0  00:15       0.184       0.184       1.180
  16SB6                JUNCTION     21.81   113.33     0  00:19       0.428        2.29      -0.026
  17SB1                JUNCTION      0.00   301.11     0  00:31           0        14.4       0.002
  17SB11               JUNCTION    153.29   153.29     0  00:12        3.29        3.29       0.781
  17SB17               JUNCTION      8.94     8.94     0  00:21       0.315       0.315       2.009
  17SB6                JUNCTION     10.76    94.20     0  00:17       0.207        1.86      -0.160
  18SB1                JUNCTION      9.02   134.55     0  00:18       0.172        3.06      -0.127
  18SB17               JUNCTION      0.00    79.04     0  00:48           0        2.91       0.294
  18SB6                JUNCTION     10.14    85.22     0  00:15       0.215        1.65      -0.105
  19SB1                JUNCTION     12.26    12.26     0  00:15       0.266       0.266      -0.515
  19SB17               JUNCTION      0.00   124.11     0  00:27           0        4.12      -0.147
  19SB6                JUNCTION     13.81    13.81     0  00:12       0.242       0.242       0.165
  1SB11_OF             JUNCTION      0.00   819.36     0  01:06           0        54.1      -0.022
  1SB14                JUNCTION     10.83    10.83     0  00:12       0.184       0.184      -0.823
  1SB17_OF             JUNCTION      0.00  1174.49     0  01:05           0        70.1       0.091
  1SB19                JUNCTION     16.15    16.15     0  00:21       0.375       0.375       0.050
  1SB20                JUNCTION     10.91    10.91     0  00:21       0.252       0.252      -1.390
  1SB21                JUNCTION     10.99    10.99     0  00:15       0.194       0.194     -20.848
  1SB22                JUNCTION     10.60    10.60     0  00:15       0.224       0.224     -13.207
  1SB23                JUNCTION     20.14    20.14     0  00:15       0.419       0.419      -0.664
  1SB3_MIL             JUNCTION     19.60    19.60     0  00:10        1.41        1.41      -0.086
  1SB4                 JUNCTION      8.27     8.27     0  00:12       0.122       0.122      -0.445
  1SB5                 JUNCTION     15.42    15.42     0  00:15       0.286       0.286      -1.049
  1SB6_OF              JUNCTION      0.00  1132.33     0  00:38           0        62.8       2.040
  1SB7                 JUNCTION     12.37    12.37     0  00:12       0.245       0.245      -0.487
  1SB9                 JUNCTION     18.25    18.25     0  00:15       0.411       0.411       0.024
  20SB1                JUNCTION     21.36    35.06     0  00:15       0.427       0.894      -0.230
  20SB6                JUNCTION     11.19    11.19     0  00:12       0.177       0.177       0.053
  21SB1                JUNCTION     22.72    36.44     0  00:15       0.527       0.807      -0.456
  21SB6                JUNCTION     12.48    12.48     0  00:15       0.234       0.234      -0.043
  22SB1                JUNCTION     13.81    13.81     0  00:15        0.28        0.28      -0.193
  22SB6                JUNCTION     15.91    28.25     0  00:15       0.282       0.516      -0.068
  23SB1                JUNCTION     15.64    15.64     0  00:21       0.468       0.468       0.095
  23SB6                JUNCTION     20.96    49.12     0  00:15       0.371       0.887      -0.131
  24SB1                JUNCTION     14.04    14.04     0  00:12       0.196       0.196      -0.039
  24SB6                JUNCTION     25.79    53.56     0  00:15       0.493        1.02       0.033
  25SB1                JUNCTION     23.29    23.29     0  00:21       0.585       0.585      -0.096
  25SB6                JUNCTION     19.74    27.90     0  00:15       0.391       0.528       0.025
  26SB1                JUNCTION     11.53    25.47     0  00:12       0.197       0.393       0.001
  26SB6                JUNCTION      8.40     8.40     0  00:12       0.137       0.137      -0.180
  27SB1                JUNCTION     13.97    39.27     0  00:12       0.245       0.637      -0.032
  28SB1                JUNCTION     20.81    58.23     0  00:15       0.507        1.14      -0.075
  29SB1                JUNCTION      0.00    80.30     0  00:15           0        1.73       0.019
  2SB1                 JUNCTION      5.27     5.27     0  00:30       0.217       0.217       0.023
  2SB11                JUNCTION     79.78   419.36     0  00:36         1.8          12       1.224
  2SB14                JUNCTION     32.21    42.67     0  00:15       0.705        0.89      -0.249
  2SB17                JUNCTION     21.06    57.21     0  00:20       0.509        1.21       0.071
  2SB19                JUNCTION      3.36     3.36     0  00:30       0.113       0.113       0.029
  2SB20_OF             JUNCTION     18.61   908.36     0  01:02        0.33        56.4       4.395
  2SB21                JUNCTION      6.67    88.19     0  01:10       0.207        2.88      21.365
  2SB22                JUNCTION      5.37     9.86     0  01:28       0.196       0.364      27.075
  2SB23                JUNCTION     17.41    17.41     0  00:12       0.317       0.317      -0.942
  2SB2_MIL             JUNCTION      0.00  2035.70     0  00:43           0        34.9       0.328
  2SB3                 JUNCTION      8.37    53.34     0  00:14       0.132        1.95       0.256
  2SB4                 JUNCTION      5.08    13.20     0  00:12       0.084       0.207       0.330
  2SB5                 JUNCTION      8.67     8.67     0  00:15       0.185       0.185      -0.779
  2SB6                 JUNCTION      0.00   302.62     0  00:28           0        7.02       1.307
  2SB7                 JUNCTION      4.54     4.54     0  00:15      0.0815      0.0815      -0.730
  2SB9                 JUNCTION      0.00    51.23     0  00:15           0        1.28      -0.312
  30SB1                JUNCTION      0.00   112.82     0  00:18           0        2.63       0.144
  31SB1                JUNCTION     21.95    21.95     0  00:21       0.621       0.621       0.937
  32SB1                JUNCTION      9.30   145.27     0  00:38       0.235        4.59       0.435
  33SB1                JUNCTION     11.32   175.90     0  00:41       0.227        6.37      -1.812
  34SB1                JUNCTION     18.64    18.64     0  00:21       0.471       0.471       0.497
  35SB1                JUNCTION     14.94    14.94     0  00:15       0.293       0.293      -1.316
  36SB1                JUNCTION      0.00    44.04     0  00:15           0        1.11       0.649
  37SB1                JUNCTION      9.54    35.14     0  00:17       0.172       0.815       0.219
  38SB1                JUNCTION      7.22    27.13     0  00:21       0.185        0.64      -0.399
  39SB1                JUNCTION     20.07    20.07     0  00:15       0.455       0.455      -0.170
  3SB1                 JUNCTION     12.90    17.82     0  00:21       0.328       0.545      -0.007
  3SB14                JUNCTION     13.73    49.62     0  00:21        0.28        1.17       0.478
  3SB17                JUNCTION     16.24    38.28     0  00:15       0.345       0.706       0.807
  3SB19                JUNCTION      0.00    19.10     0  00:21           0       0.487       0.080
  3SB21                JUNCTION      5.45   117.25     0  01:04       0.159         4.5       4.831
  3SB22                JUNCTION      0.00    66.57     0  01:15           0        2.05      53.515
  3SB23                JUNCTION     16.80    46.88     0  00:14       0.306       0.844       0.388
  3SB3                 JUNCTION      9.67    25.77     0  00:13       0.129       0.405       0.424
  3SB5                 JUNCTION      0.00    24.40     0  00:15           0       0.487       1.178
  3SB6                 JUNCTION     10.81    21.59     0  00:18       0.213       0.461       0.597
  3SB7                 JUNCTION      4.54    22.32     0  00:13       0.093       0.422      -0.153
  3SB9                 JUNCTION     11.10    34.58     0  00:15        0.26       0.871       0.265
  40SB1                JUNCTION     32.25   323.99     0  00:30         0.7        15.1      -0.678
  41SB1                JUNCTION     12.56   501.63     0  00:38       0.455        22.1       0.365
  42SB1                JUNCTION      0.00   287.11     0  00:32           0        22.4       0.867
  43SB1                JUNCTION     13.39    13.39     0  00:15       0.252       0.252     -20.528
  44SB1                JUNCTION      9.73     9.73     0  00:21       0.275       0.275      -0.052
  45SB1                JUNCTION     11.51    21.56     0  00:20       0.247       0.522       0.083
  46SB1                JUNCTION     14.29   104.70     0  03:06        0.31          23       0.016
  47SB1                JUNCTION      0.00   104.73     0  03:06           0          23       0.090
  48SB1_OF             JUNCTION      0.00   820.87     0  00:39           0          32       0.247
  49SB1                JUNCTION     21.78    21.78     0  00:12       0.529       0.529       1.773
  4SB1                 JUNCTION     15.77    33.47     0  00:21       0.459           1      -0.048
  4SB11                JUNCTION     32.52   374.97     0  00:32       0.726        10.1      -0.401
  4SB14                JUNCTION     15.57    61.05     0  00:21        0.26        1.43      -0.101
  4SB17                JUNCTION     20.76    20.76     0  00:12       0.356       0.356      -1.414
  4SB19_OF             JUNCTION      7.47   793.03     0  01:04       0.108        51.9       0.024
  4SB21                JUNCTION      0.00   155.53     0  01:04           0         5.4      34.796
  4SB22_OF             JUNCTION      0.00   986.65     0  00:43           0        61.8       2.534
  4SB23                JUNCTION      9.99     9.99     0  00:15       0.216       0.216      -0.415
  4SB3                 JUNCTION      7.81     7.81     0  00:15       0.145       0.145      -1.325
  4SB5_OF              JUNCTION     11.61   927.31     0  00:42        0.15        56.6       0.335
  4SB6                 JUNCTION     10.94    10.94     0  00:15       0.248       0.248      -0.155
  4SB7                 JUNCTION      0.00    23.56     0  00:14           0       0.422       0.651
  4SB9                 JUNCTION     24.19    24.19     0  00:12        0.61        0.61      -0.279
  50SB1                JUNCTION      0.00    20.18     0  00:21           0       0.519       1.379
  51SB1                JUNCTION      5.76     5.76     0  00:12      0.0714      0.0714       0.494
  52SB1_OF             JUNCTION      0.00   836.92     0  00:38           0        31.9       0.138
  53SB1_OF             JUNCTION      0.00   970.51     0  00:36           0        29.6       0.076
  5SB1                 JUNCTION     30.55   182.68     0  00:28       0.696        10.9       0.011
  5SB11                JUNCTION     28.33   277.53     0  00:27       0.567        6.99      -0.243
  5SB14                JUNCTION      4.48    20.48     0  00:21       0.131       0.488      -0.251
  5SB17                JUNCTION     18.47    18.47     0  00:15       0.407       0.407      -1.189
  5SB21_OF             JUNCTION      0.00   957.10     0  00:59           0        59.6       6.374
  5SB23                JUNCTION      0.00    58.90     0  00:21           0        1.26       0.338
  5SB3                 JUNCTION      7.58     7.58     0  00:12       0.126       0.126      -1.675
  5SB6                 JUNCTION     13.02   279.05     0  00:28       0.243        6.49      -1.061
  5SB7_OF              JUNCTION     17.39   952.69     0  00:58       0.263        60.9       3.627
  5SB9_OF              JUNCTION      0.00   815.16     0  01:04           0        53.2       0.068
  6SB1                 JUNCTION      9.41     9.41     0  00:21       0.273       0.273      -0.002
  6SB11                JUNCTION     21.44    96.00     0  00:29       0.605         2.4       0.252
  6SB14                JUNCTION     10.78    16.64     0  00:15       0.181       0.357      -0.036
  6SB17                JUNCTION     12.73    69.10     0  00:15       0.251        1.41       0.883
  6SB3                 JUNCTION      9.09     9.09     0  00:12       0.163       0.163      -2.208
  745                  JUNCTION      0.00   920.68     0  00:45           0        56.4       0.938
  747                  JUNCTION      0.00   783.34     0  01:04           0        51.3       0.005
  751                  JUNCTION      0.00   114.96     0  01:04           0        3.75      -0.543
  754                  JUNCTION      0.00    72.87     0  00:20           0         1.5      -0.016
  756                  JUNCTION      0.00   184.66     0  00:28           0        4.26       0.007
  757                  JUNCTION      0.00   146.72     0  00:22           0        2.97       0.728
  758                  JUNCTION      0.00   145.24     0  00:21           0        2.97      -0.047
  7SB1                 JUNCTION     19.06   188.44     0  00:31       0.447        11.7      -0.014
  7SB11                JUNCTION     16.05    81.73     0  00:24       0.284        1.81       0.445
  7SB14                JUNCTION      6.68     6.68     0  00:21       0.176       0.176       0.028
  7SB17                JUNCTION     16.37    16.37     0  00:15       0.352       0.352      -0.701
  7SB3                 JUNCTION      0.00    41.47     0  00:31           0        2.11       0.210
  7SB6                 JUNCTION      8.55    81.09     0  00:21       0.184        1.68       0.039
  800                  JUNCTION      0.00  1081.87     0  01:05           0        65.9      -0.104
  802                  JUNCTION      0.00  1252.62     0  01:07           0        74.5       0.226
  818                  JUNCTION      0.00   941.33     0  00:37           0        29.6       0.077
  822                  JUNCTION      0.00   875.10     0  00:45           0        54.9       0.144
  824                  JUNCTION      0.00   870.29     0  00:46           0        54.8       0.322
  8SB1                 JUNCTION     13.55    13.55     0  00:15       0.404       0.404      -1.306
  8SB11                JUNCTION     14.41    68.72     0  00:20       0.186        1.54       0.853
  8SB14                JUNCTION      7.96     7.96     0  00:12       0.124       0.124       4.810
  8SB17                JUNCTION     17.35    17.35     0  00:15       0.392       0.392      -0.815
  8SB3_OF              JUNCTION      9.63   879.01     0  00:38       0.178        31.9       0.107
  8SB6                 JUNCTION     11.27   269.55     0  00:27       0.302        6.24      -0.002
  9SB1                 JUNCTION     15.86   208.87     0  00:36       0.462        12.5       0.107
  9SB11                JUNCTION     10.70    50.48     0  00:15       0.244       0.949       0.269
  9SB14                JUNCTION     15.72    94.90     0  00:21         0.3        2.22       0.125
  9SB17                JUNCTION     11.41    11.41     0  00:12       0.235       0.235       1.194
  O.15_UP              JUNCTION      0.00  1252.08     0  01:07           0        74.3       0.279
  SB1018_OF            JUNCTION     73.25   822.45     0  01:04       0.952        54.1       0.058
  SB1216_OF            JUNCTION     42.67  1179.87     0  01:06       0.707        70.7       0.226
  O.O_RM               OUTFALL       0.00  1312.74     0  01:10           0        73.2       0.000
  1SB1                 STORAGE     633.95   633.95     0  00:15        9.41        9.41       0.011
  99                   STORAGE       0.00   461.35     0  00:20           0        4.88      -0.085
  
  
  **********************
  Node Surcharge Summary
  **********************
  
  No nodes were surcharged.
  
  
  *********************
  Node Flooding Summary
  *********************
  
  No nodes were flooded.
  
  
  **********************
  Storage Volume Summary
  **********************
  
  ------------------------------------------------------------------------------------------------
                         Average    Avg   Evap  Exfil     Maximum    Max    Time of Max    Maximum
                          Volume   Pcnt   Pcnt   Pcnt      Volume   Pcnt     Occurrence    Outflow
  Storage Unit          1000 ftł   Full   Loss   Loss    1000 ftł   Full    days hr:min        CFS
  ------------------------------------------------------------------------------------------------
  1SB1                   137.551    0.8    0.0    0.0     807.144    4.9       0  01:08     129.31
  99                     327.889   36.3    0.0    0.0     632.269   70.1       0  00:40      10.97
  
  
  ***********************
  Outfall Loading Summary
  ***********************
  
  -----------------------------------------------------------
                         Flow       Avg       Max       Total
                         Freq      Flow      Flow      Volume
  Outfall Node           Pcnt       CFS       CFS    10^6 gal
  -----------------------------------------------------------
  O.O_RM                97.29    132.52   1312.74      73.158
  -----------------------------------------------------------
  System                97.29    132.52   1312.74      73.158
  
  
  ********************
  Link Flow Summary
  ********************
  
  -----------------------------------------------------------------------------
                                 Maximum  Time of Max   Maximum    Max/    Max/
                                  |Flow|   Occurrence   |Veloc|    Full    Full
  Link                 Type          CFS  days hr:min    ft/sec    Flow   Depth
  -----------------------------------------------------------------------------
  583                  CHANNEL     11.99     0  00:18      3.32    0.00    0.06
  591                  CHANNEL      8.29     0  00:12      1.99    0.00    0.07
  592                  CHANNEL     27.80     0  00:15      3.73    0.00    0.09
  593                  CHANNEL     53.23     0  00:15      6.90    0.00    0.09
  594                  CHANNEL     47.93     0  00:16      3.49    0.00    0.13
  595                  CHANNEL     28.17     0  00:15      2.86    0.00    0.10
  596                  CHANNEL     12.45     0  00:15      3.14    0.00    0.06
  597                  CHANNEL     30.03     0  00:15      5.41    0.01    0.18
  598                  CHANNEL     33.28     0  00:20      4.26    0.01    0.18
  601                  CHANNEL     28.50     0  00:12      4.22    0.01    0.21
  602                  CHANNEL     72.87     0  00:20      5.81    0.00    0.12
  604                  CHANNEL    284.22     0  00:28     10.28    0.06    0.47
  606                  CHANNEL     11.48     0  00:18      2.40    0.00    0.07
  607                  CHANNEL     20.88     0  00:18      3.44    0.00    0.13
  608                  CHANNEL     23.81     0  00:15      3.68    0.00    0.10
  609                  CHANNEL     33.53     0  00:21      2.85    0.00    0.11
  610                  CONDUIT     51.07     0  00:17      5.30    0.05    0.57
  612                  CHANNEL     12.59     0  00:14      2.88    0.00    0.08
  613                  CHANNEL     23.56     0  00:14      3.00    0.00    0.17
  615                  CHANNEL      5.46     0  00:12      1.54    0.00    0.07
  616                  CHANNEL     15.92     0  00:21      3.06    0.00    0.07
  618                  CHANNEL      3.31     0  00:30      2.51    0.00    0.04
  619                  CHANNEL     10.85     0  00:21      4.52    0.00    0.09
  620                  CHANNEL     10.89     0  00:15      4.55    0.00    0.28
  622                  CHANNEL    117.99     0  01:14      3.49    0.00    0.44
  623                  CHANNEL     85.19     0  01:10      2.42    0.00    0.51
  624                  CHANNEL     10.44     0  00:16      4.10    0.00    0.20
  626                  CHANNEL      8.20     0  02:07      3.09    0.00    0.33
  627                  CHANNEL     19.84     0  00:16      4.86    0.00    0.09
  628                  CHANNEL     58.62     0  00:22      6.03    0.00    0.15
  629                  CHANNEL     19.35     0  00:15      2.47    0.00    0.11
  630                  CHANNEL     39.34     0  00:22      2.74    0.00    0.12
  631                  CHANNEL     11.66     0  00:20      1.83    0.00    0.10
  632                  CHANNEL     15.83     0  00:15      4.11    0.00    0.08
  633                  CHANNEL     23.12     0  00:18      3.84    0.00    0.17
  634                  CHANNEL      8.58     0  00:16      3.61    0.00    0.08
  712                  CHANNEL    791.61     0  01:04      7.45    0.02    0.24
  713                  CHANNEL    815.01     0  01:05      6.32    0.02    0.21
  714                  CHANNEL    819.36     0  01:06      4.04    0.02    0.26
  748                  CHANNEL    783.25     0  01:04      5.35    0.03    0.28
  750                  CHANNEL     63.43     0  01:15      2.32    0.00    0.43
  753                  CHANNEL    110.80     0  01:04      2.09    0.00    0.20
  762                  CHANNEL     10.48     0  00:15      2.16    0.00    0.07
  635                  CHANNEL      8.14     0  00:12      3.12    0.00    0.07
  636                  CHANNEL     12.66     0  00:15      2.41    0.00    0.07
  637                  CHANNEL      8.92     0  00:12      2.80    0.00    0.14
  641                  CHANNEL      8.64     0  00:14      2.16    0.00    0.08
  642                  CHANNEL     26.19     0  00:14      2.41    0.00    0.18
  643                  CHANNEL      8.64     0  00:14      2.08    0.00    0.08
  644                  CONDUIT    129.31     0  00:28     18.96    1.16    1.00
  647                  CHANNEL    217.31     0  00:28      2.83    0.01    0.22
  650                  CHANNEL    323.91     0  00:33      2.08    0.04    0.29
  655                  CONDUIT      5.26     0  00:30      3.25    0.06    0.24
  656                  CONDUIT     17.75     0  00:21      6.81    0.21    0.32
  657                  CONDUIT     33.40     0  00:21      8.01    0.22    0.66
  658                  CHANNEL     14.10     0  00:18      2.35    0.00    0.09
  659                  CHANNEL     77.21     0  00:24      2.54    0.00    0.16
  660                  CHANNEL    216.27     0  00:24      3.90    0.01    0.21
  662                  CHANNEL     13.74     0  00:15      3.55    0.00    0.08
  663                  CHANNEL     36.31     0  00:18      3.67    0.00    0.10
  664                  CHANNEL     51.44     0  00:22      4.51    0.00    0.11
  665                  CHANNEL     15.48     0  00:21      3.16    0.00    0.07
  666                  CHANNEL     34.80     0  00:21      4.55    0.00    0.13
  667                  CHANNEL     13.96     0  00:12      4.78    0.00    0.06
  668                  CHANNEL     25.36     0  00:12      4.39    0.00    0.08
  669                  CHANNEL     39.02     0  00:12      4.35    0.00    0.10
  670                  CHANNEL     58.17     0  00:15      5.94    0.00    0.11
  671                  CHANNEL     78.21     0  00:17      4.44    0.00    0.15
  672                  CHANNEL    112.61     0  00:19      4.36    0.00    0.16
  673                  CHANNEL    132.47     0  00:21      4.67    0.00    0.18
  674                  CHANNEL     23.16     0  00:21      4.31    0.00    0.10
  675                  CHANNEL     13.84     0  00:18      2.39    0.00    0.11
  676                  CONDUIT      8.73     0  00:30      3.13    0.00    0.09
  677                  CHANNEL     14.48     0  00:26      1.80    0.00    0.16
  678                  CHANNEL     16.91     0  00:18      3.23    0.00    0.16
  679                  CHANNEL     21.72     0  00:22      3.74    0.00    0.15
  680                  CHANNEL     20.09     0  00:16      3.57    0.00    0.08
  681                  CHANNEL     26.85     0  00:21      3.32    0.00    0.13
  682                  CHANNEL     28.28     0  00:19      2.35    0.00    0.24
  684                  CHANNEL    173.55     0  00:42      1.19    0.07    0.82
  685                  CHANNEL     17.12     0  00:15      3.08    0.00    0.21
  686                  CHANNEL    136.15     0  00:41      3.32    0.01    0.18
  687                  CHANNEL     18.43     0  00:21      4.60    0.00    0.07
  688                  CHANNEL      0.00     0  00:00      0.00    0.00    0.00
  690                  CHANNEL      0.00     0  00:00      0.00    0.00    0.03
  694                  CHANNEL     13.28     0  00:15      4.98    0.00    0.25
  695                  CHANNEL     11.13     0  00:22      2.06    0.00    0.08
  696                  CHANNEL     20.03     0  00:21      2.91    0.00    0.09
  702                  CHANNEL    833.72     0  00:38      4.47    0.11    0.42
  703                  CHANNEL    835.22     0  00:38      4.56    0.09    0.42
  704                  CHANNEL    815.00     0  00:39      5.26    0.10    0.38
  705                  CHANNEL    870.29     0  00:46      5.09    0.08    0.32
  825                  CHANNEL    873.52     0  00:45      7.34    0.03    0.32
  826                  CHANNEL    138.48     0  00:40      3.69    0.01    0.18
  536                  CHANNEL     22.22     0  00:20      2.15    0.00    0.12
  537                  CHANNEL     49.02     0  00:30      2.48    0.00    0.14
  543                  CHANNEL     17.23     0  00:15      3.49    0.00    0.12
  544                  CHANNEL     11.12     0  00:15      3.03    0.00    0.07
  548                  CHANNEL     17.80     0  00:15      2.98    0.00    0.12
  549                  CHANNEL      7.73     0  00:16      2.82    0.00    0.07
  551                  CHANNEL     22.11     0  00:15      2.54    0.00    0.10
  552                  CHANNEL     36.27     0  00:19      3.79    0.00    0.10
  557                  CHANNEL     10.65     0  00:13      1.93    0.00    0.10
  558                  CHANNEL     37.32     0  00:22      2.46    0.00    0.13
  559                  CHANNEL     48.67     0  00:23      4.92    0.00    0.10
  560                  CHANNEL     60.69     0  00:22      5.27    0.00    0.11
  561                  CHANNEL     92.65     0  00:23      6.42    0.00    0.12
  563                  CHANNEL      6.84     0  00:18      3.63    0.00    0.05
  564                  CHANNEL      6.63     0  00:21      2.82    0.00    0.05
  565                  CHANNEL     16.55     0  00:15      3.39    0.00    0.07
  566                  CHANNEL     20.99     0  00:16      2.35    0.00    0.10
  571                  CHANNEL     19.03     0  00:13      2.81    0.00    0.09
  572                  CHANNEL     39.85     0  00:15      3.06    0.00    0.13
  573                  CHANNEL     41.26     0  00:22      2.58    0.00    0.13
  582                  CHANNEL     17.54     0  00:21      5.68    0.00    0.07
  717                  CHANNEL   1178.42     0  01:07      4.36    0.22    0.49
  801                  CHANNEL   1081.84     0  01:05      7.28    0.08    0.34
  0.06_NAT             CHANNEL   1312.74     0  01:10      0.72    0.03    0.35
  1087                 CHANNEL    114.48     0  01:04      6.19    0.00    0.21
  1051                 CHANNEL    466.84     0  00:38      1.96    0.01    0.32
  817pipe              CONDUIT     63.60     0  00:15     12.96    1.03    1.00
  817chan              CHANNEL     20.18     0  00:17      2.27    0.00    0.05
  816pipe              CONDUIT     42.96     0  00:13     13.67    1.03    1.00
  816chan              CHANNEL     49.98     0  00:19      3.26    0.00    0.07
  815pipe1             CONDUIT     20.72     0  00:09      6.60    0.89    1.00
  815chan              CHANNEL     75.34     0  00:22      2.39    0.00    0.09
  815pipe2             CONDUIT     22.40     0  00:09      7.13    0.89    1.00
  814pipe              CONDUIT     33.66     0  00:08     10.71    1.91    1.00
  814chan              CHANNEL    128.29     0  00:21      2.91    0.01    0.11
  810pipe1             CONDUIT    117.08     0  00:28     10.64    1.10    0.82
  810chan              CHANNEL      0.00     0  00:00      0.00    0.00    0.00
  810pipe2             CONDUIT     67.44     0  00:28      9.89    1.44    0.93
  789pipe              CONDUIT    269.52     0  00:27     24.47    0.74    0.82
  789of                CONDUIT      0.00     0  00:00      0.00    0.00    0.00
  803pipe              CONDUIT     72.70     0  00:24     10.75    2.12    0.93
  803chan              CHANNEL     10.01     0  00:21      2.48    0.00    0.07
  805pipe1             CONDUIT     84.56     0  00:31     12.91    1.04    1.00
  805pipe2             CONDUIT    210.96     0  00:24     14.47    1.08    1.00
  805of                CONDUIT      0.16     0  01:00      0.02    0.00    0.27
  830pipe              CONDUIT     10.96     0  00:16     10.67    1.04    0.95
  830of                CONDUIT      7.26     0  00:15      7.54    0.00    0.04
  831pipe              CONDUIT     13.08     0  00:14     11.82    1.04    1.00
  831of                CONDUIT      0.00     0  00:00      0.00    0.00    0.50
  827pipe              CONDUIT     19.10     0  00:21     11.47    0.54    0.70
  827of                CONDUIT      0.00     0  00:00      0.00    0.00    0.20
  826pipe              CONDUIT     19.02     0  00:20      8.82    1.09    1.00
  826of                CONDUIT     35.45     0  01:03      3.28    0.02    0.28
  825pipe              CONDUIT      5.56     0  00:17      7.59    0.49    1.00
  825of                CONDUIT      2.79     0  01:02      0.68    0.00    0.13
  51OVRFLW             CHANNEL      0.00     0  00:00      0.00    0.00    0.00
  51_7x10_1            CONDUIT    460.34     0  00:45     11.02    1.22    1.00
  51_7x10_2            CONDUIT    460.34     0  00:45     11.02    1.22    1.00
  707_modify           CHANNEL    986.65     0  00:43    >50.00    0.01    0.36
  708_modify           CHANNEL    940.48     0  00:58     48.37    0.01    0.38
  709_modify           CHANNEL    957.10     0  00:59      9.29    0.01    0.42
  710_modify           CHANNEL    903.75     0  01:02      1.95    0.01    0.46
  47PIPE               CONDUIT      4.61     0  00:44      6.60    3.47    1.00
  47OVRFLW             CHANNEL    779.46     0  01:04      3.01    0.03    0.09
  746_modify           CHANNEL    880.87     0  00:38      2.95    0.01    0.33
  804pipe              CONDUIT     34.02     0  00:51      6.93    1.83    1.00
  804chan              CHANNEL     55.01     0  00:21      3.39    0.00    0.13
  813pipe              CONDUIT     36.97     0  00:10      7.53    2.13    1.00
  813chan              CHANNEL    128.84     0  00:22      3.15    0.01    0.11
  812pipe              CONDUIT     45.30     0  01:16      6.41    1.61    1.00
  812chan              CHANNEL    115.21     0  00:25      3.08    0.01    0.10
  811pipe              CONDUIT     80.55     0  00:21      8.57    1.90    1.00
  811chan              CHANNEL     85.25     0  00:28      2.87    0.00    0.09
  838of                CHANNEL     24.16     0  00:39      4.10    0.00    0.10
  838pip               CONDUIT     25.58     0  00:19      8.19    1.47    1.00
  839chan              CHANNEL     11.25     0  00:36      0.68    0.00    0.15
  839pipe              CONDUIT     16.28     0  00:06      5.92    0.94    1.00
  838chan              CHANNEL     18.57     0  00:35      4.03    0.00    0.07
  838pipe              CONDUIT     20.86     0  02:39      6.64    1.20    1.00
  36inch_1             CONDUIT     42.12     0  00:33      6.21    1.05    1.00
  54inch_1             CONDUIT    124.17     0  00:33      7.81    1.05    1.00
  36inch_2             CONDUIT     54.61     0  00:37      8.21    1.49    0.92
  54inch_2             CONDUIT    131.83     0  00:37     10.16    1.22    0.78
  848pipe              CONDUIT     79.90     0  01:23      8.35    1.67    1.00
  848chan              CONDUIT     27.18     0  00:39      4.39    0.03    0.18
  849_1                CONDUIT    149.90     0  00:32      8.52    1.61    0.84
  849_2                CONDUIT    149.90     0  00:32      8.52    1.61    0.84
  849_trap             CONDUIT      1.31     0  00:32      1.35    0.00    0.04
  853pipe              CONDUIT     11.55     0  00:09      2.39    1.17    1.00
  853of                CHANNEL     11.21     0  00:21      0.78    0.01    0.16
  854of                CHANNEL     22.23     0  00:27      1.75    0.01    0.18
  861_1                CONDUIT    104.08     0  00:26      8.28    2.73    1.00
  861_2                CONDUIT    104.08     0  00:26      8.28    2.73    1.00
  861_trap             CONDUIT     11.17     0  00:31      3.37    0.01    0.11
  883culv              CONDUIT     19.82     0  00:25      6.35    1.20    1.00
  883of                CHANNEL      2.57     0  00:59      1.45    0.00    0.12
  889pipe              CONDUIT      5.73     0  00:12      6.92    0.74    1.00
  889chan              CHANNEL      0.00     0  00:00      0.00    0.00    0.14
  691pipe              CONDUIT    104.80     0  03:04      5.92    0.91    1.00
  691chan              CHANNEL     11.24     0  00:50      1.60    0.00    0.09
  892pipe              CONDUIT    104.16     0  03:08      8.33    1.63    1.00
  892chan              CHANNEL      0.00     0  00:00      0.00    0.00    0.00
  893pipe              CONDUIT    104.73     0  03:06      6.29    0.91    1.00
  893chan              CHANNEL      0.00     0  00:00      0.00    0.00    0.03
  55_OVRFLW            CHANNEL      0.00     0  00:00      0.00    0.00    0.02
  55_5x12_1            CONDUIT    470.66     0  00:37      7.84    0.94    1.00
  55_5x12_2            CONDUIT    470.66     0  00:37      7.84    0.94    1.00
  53_#7TRP             CONDUIT    820.72     0  00:40      3.11    0.32    0.35
  708pipe              CONDUIT     48.67     0  00:16      6.89    1.38    1.00
  708chan              CHANNEL     37.36     0  00:42      1.63    0.00    0.08
  706pipe              CONDUIT     58.28     0  01:11      6.07    1.34    1.00
  706chan              CHANNEL     13.84     0  00:49      1.45    0.00    0.05
  704pipe              CONDUIT     72.39     0  00:48      7.52    1.41    1.00
  704chan              CHANNEL      0.00     0  00:00      0.00    0.00    0.00
  702pipe              CONDUIT     79.18     0  00:48      8.23    1.54    1.00
[...]
  582                     1.00   0.00  0.00  0.00  0.04  0.01  0.00  0.95  0.05  0.00
  717                     1.00   0.00  0.00  0.00  1.00  0.00  0.00  0.00  0.00  0.00
  801                     1.00   0.00  0.00  0.00  1.00  0.00  0.00  0.00  0.00  0.00
  0.06_NAT                1.00   0.00  0.00  0.00  1.00  0.00  0.00  0.00  0.00  0.00
  1087                    1.00   0.00  0.00  0.00  0.98  0.02  0.00  0.00  0.08  0.00
  1051                    1.00   0.00  0.00  0.00  1.00  0.00  0.00  0.00  0.00  0.00
  817pipe                 1.00   0.00  0.00  0.00  0.51  0.49  0.00  0.00  0.96  0.00
  817chan                 1.00   0.97  0.02  0.00  0.02  0.00  0.00  0.00  0.99  0.00
  816pipe                 1.00   0.00  0.00  0.00  0.05  0.95  0.00  0.00  0.23  0.00
  816chan                 1.00   0.96  0.01  0.00  0.03  0.00  0.00  0.00  0.99  0.00
  815pipe1                1.00   0.00  0.00  0.00  1.00  0.00  0.00  0.00  0.66  0.00
  815chan                 1.00   0.95  0.01  0.00  0.04  0.00  0.00  0.00  0.97  0.00
  815pipe2                1.00   0.00  0.00  0.00  1.00  0.00  0.00  0.00  0.92  0.00
  814pipe                 1.00   0.00  0.00  0.00  1.00  0.00  0.00  0.00  0.53  0.00
  814chan                 1.00   0.95  0.00  0.00  0.05  0.00  0.00  0.01  0.00  0.00
  810pipe1                1.00   0.00  0.00  0.00  0.72  0.28  0.00  0.00  0.00  0.00
  810chan                 1.00   1.00  0.00  0.00  0.00  0.00  0.00  0.00  0.00  0.00
  810pipe2                1.00   0.00  0.00  0.00  0.80  0.20  0.00  0.00  0.00  0.00
  789pipe                 1.00   0.00  0.00  0.00  0.95  0.05  0.00  0.00  1.00  0.00
  789of                   1.00   1.00  0.00  0.00  0.00  0.00  0.00  0.00  0.00  0.00
  803pipe                 1.00   0.00  0.00  0.00  0.99  0.01  0.00  0.00  0.00  0.00
  803chan                 1.00   0.99  0.00  0.00  0.00  0.00  0.00  0.01  0.00  0.00
  805pipe1                1.00   0.00  0.01  0.00  0.98  0.02  0.00  0.00  0.02  0.00
  805pipe2                1.00   0.00  0.00  0.00  0.97  0.00  0.00  0.02  0.00  0.00
  805of                   1.00   0.03  0.97  0.00  0.01  0.00  0.00  0.00  0.96  0.00
  830pipe                 1.00   0.00  0.73  0.00  0.02  0.25  0.00  0.00  0.78  0.00
  830of                   1.00   0.97  0.00  0.00  0.00  0.00  0.00  0.03  0.00  0.00
  831pipe                 1.00   0.00  0.00  0.00  0.99  0.01  0.00  0.00  0.93  0.00
  831of                   1.00   0.02  0.98  0.00  0.00  0.00  0.00  0.00  0.00  0.00
  827pipe                 1.00   0.00  0.00  0.00  0.46  0.00  0.00  0.54  0.46  0.00
  827of                   1.00   0.95  0.05  0.00  0.00  0.00  0.00  0.00  0.00  0.00
  826pipe                 1.00   0.00  0.00  0.00  0.99  0.01  0.00  0.00  0.00  0.00
  826of                   1.00   0.03  0.78  0.00  0.12  0.00  0.07  0.00  0.89  0.00
  825pipe                 1.00   0.00  0.00  0.00  0.99  0.01  0.00  0.00  0.01  0.00
  825of                   1.00   0.81  0.17  0.00  0.00  0.00  0.02  0.00  0.00  0.00
  51OVRFLW                1.00   1.00  0.00  0.00  0.00  0.00  0.00  0.00  0.00  0.00
  51_7x10_1               1.00   0.00  0.00  0.00  1.00  0.00  0.00  0.00  0.00  0.00
  51_7x10_2               1.00   0.00  0.00  0.00  1.00  0.00  0.00  0.00  0.00  0.00
  707_modify              1.00   0.00  0.00  0.00  1.00  0.00  0.00  0.00  0.00  0.00
  708_modify              1.00   0.00  0.00  0.00  1.00  0.00  0.00  0.00  0.00  0.00
  709_modify              1.00   0.00  0.00  0.00  1.00  0.00  0.00  0.00  0.00  0.00
  710_modify              1.00   0.00  0.00  0.00  1.00  0.00  0.00  0.00  0.01  0.00
  47PIPE                  1.00   0.00  0.00  0.00  0.54  0.46  0.00  0.00  0.00  0.00
  47OVRFLW                1.00   0.03  0.00  0.00  0.00  0.00  0.00  0.97  0.00  0.00
  746_modify              1.00   0.00  0.00  0.00  1.00  0.00  0.00  0.00  0.00  0.00
  804pipe                 1.00   0.00  0.00  0.00  1.00  0.00  0.00  0.00  0.00  0.00
  804chan                 1.00   0.97  0.00  0.00  0.00  0.00  0.00  0.03  0.00  0.00
  813pipe                 1.00   0.00  0.00  0.00  1.00  0.00  0.00  0.00  0.00  0.00
  813chan                 1.00   0.95  0.00  0.00  0.04  0.00  0.00  0.01  0.00  0.00
  812pipe                 1.00   0.00  0.00  0.00  1.00  0.00  0.00  0.00  0.21  0.00
  812chan                 1.00   0.96  0.00  0.00  0.02  0.00  0.00  0.03  0.00  0.00
  811pipe                 1.00   0.00  0.00  0.00  1.00  0.00  0.00  0.00  0.00  0.00
  811chan                 1.00   0.96  0.00  0.00  0.00  0.00  0.00  0.04  0.00  0.00
  838of                   1.00   0.93  0.00  0.00  0.02  0.00  0.00  0.05  0.02  0.00
  838pip                  1.00   0.00  0.00  0.00  0.97  0.00  0.00  0.03  0.88  0.00
  839chan                 1.00   0.88  0.01  0.00  0.11  0.00  0.00  0.00  0.99  0.00
  839pipe                 1.00   0.00  0.84  0.00  0.16  0.00  0.00  0.00  0.88  0.00
  838chan                 1.00   0.90  0.00  0.00  0.03  0.01  0.00  0.07  0.04  0.00
  838pipe                 1.00   0.00  0.00  0.00  1.00  0.00  0.00  0.00  0.01  0.00
  36inch_1                1.00   0.00  0.00  0.00  1.00  0.00  0.00  0.00  0.00  0.00
  54inch_1                1.00   0.00  0.00  0.00  0.99  0.01  0.00  0.00  0.13  0.00
  36inch_2                1.00   0.00  0.00  0.00  0.99  0.01  0.00  0.00  0.74  0.00
  54inch_2                1.00   0.00  0.00  0.00  0.94  0.06  0.00  0.00  0.82  0.00
  848pipe                 1.00   0.00  0.00  0.00  0.83  0.17  0.00  0.00  0.01  0.00
  848chan                 1.00   0.91  0.00  0.00  0.00  0.00  0.00  0.09  0.00  0.00
  849_1                   1.00   0.00  0.00  0.00  1.00  0.00  0.00  0.00  0.05  0.00
  849_2                   1.00   0.00  0.00  0.00  1.00  0.00  0.00  0.00  0.05  0.00
  849_trap                1.00   0.99  0.00  0.00  0.00  0.00  0.00  0.01  0.00  0.00
  853pipe                 1.00   0.00  0.00  0.00  1.00  0.00  0.00  0.00  0.00  0.00
  853of                   1.00   0.01  0.77  0.00  0.22  0.00  0.00  0.00  0.00  0.00
  854of                   1.00   0.01  0.00  0.00  0.03  0.00  0.00  0.96  0.00  0.00
  861_1                   1.00   0.00  0.00  0.00  1.00  0.00  0.00  0.00  0.00  0.00
  861_2                   1.00   0.00  0.00  0.00  1.00  0.00  0.00  0.00  0.00  0.00
  861_trap                1.00   0.98  0.00  0.00  0.00  0.00  0.00  0.02  0.00  0.00
  883culv                 1.00   0.00  0.00  0.00  1.00  0.00  0.00  0.00  0.91  0.00
  883of                   1.00   0.79  0.14  0.00  0.02  0.00  0.00  0.04  0.93  0.00
  889pipe                 1.00   0.00  0.81  0.00  0.18  0.00  0.00  0.01  0.94  0.00
  889chan                 1.00   0.93  0.07  0.00  0.00  0.00  0.00  0.00  0.00  0.00
  691pipe                 1.00   0.00  0.00  0.00  1.00  0.00  0.00  0.00  0.00  0.00
  691chan                 1.00   0.95  0.01  0.00  0.04  0.00  0.00  0.00  0.95  0.00
  892pipe                 1.00   0.00  0.00  0.00  1.00  0.00  0.00  0.00  0.23  0.00
  892chan                 1.00   1.00  0.00  0.00  0.00  0.00  0.00  0.00  0.00  0.00
  893pipe                 1.00   0.00  0.00  0.00  1.00  0.00  0.00  0.00  0.00  0.00
  893chan                 1.00   0.96  0.04  0.00  0.00  0.00  0.00  0.00  0.00  0.00
  55_OVRFLW               1.00   0.99  0.01  0.00  0.00  0.00  0.00  0.00  0.00  0.00
  55_5x12_1               1.00   0.00  0.00  0.00  1.00  0.00  0.00  0.00  0.00  0.00
  55_5x12_2               1.00   0.00  0.00  0.00  1.00  0.00  0.00  0.00  0.00  0.00
  53_#7TRP                1.00   0.00  0.00  0.00  1.00  0.00  0.00  0.00  0.00  0.00
  708pipe                 1.00   0.00  0.00  0.00  0.05  0.00  0.00  0.95  0.00  0.00
  708chan                 1.00   0.96  0.00  0.00  0.02  0.00  0.00  0.03  0.00  0.00
  706pipe                 1.00   0.00  0.00  0.00  0.05  0.00  0.00  0.95  0.00  0.00
  706chan                 1.00   0.97  0.00  0.00  0.00  0.00  0.00  0.03  0.00  0.00
  704pipe                 1.00   0.00  0.00  0.00  1.00  0.00  0.00  0.00  0.01  0.00
  704chan                 1.00   1.00  0.00  0.00  0.00  0.00  0.00  0.00  0.00  0.00
  702pipe                 1.00   0.00  0.00  0.00  0.99  0.00  0.00  0.01  0.88  0.00
  702chan                 1.00   1.00  0.00  0.00  0.00  0.00  0.00  0.00  0.00  0.00
  700pipe                 1.00   0.00  0.00  0.00  1.00  0.00  0.00  0.00  0.00  0.00
  700chan                 1.00   1.00  0.00  0.00  0.00  0.00  0.00  0.00  0.00  0.00
  707pipe                 1.00   0.00  0.00  0.00  0.05  0.00  0.00  0.95  0.00  0.00
  707chan                 1.00   0.96  0.00  0.00  0.03  0.00  0.00  0.01  0.98  0.00
  705pipe                 1.00   0.00  0.00  0.00  0.05  0.00  0.00  0.95  0.00  0.00
  705chan                 1.00   1.00  0.00  0.00  0.00  0.00  0.00  0.00  0.00  0.00
  750p                    1.00   0.00  0.00  0.00  0.04  0.00  0.00  0.96  0.00  0.00
  750c                    1.00   0.97  0.00  0.00  0.00  0.00  0.00  0.03  0.00  0.00
  701pipe                 1.00   0.00  0.00  0.00  0.01  0.00  0.00  0.99  0.00  0.00
  701chan                 1.00   0.95  0.00  0.00  0.00  0.00  0.00  0.05  0.00  0.00
  740pipe                 1.00   0.00  0.00  0.00  0.99  0.01  0.00  0.00  0.94  0.00
  740chan                 1.00   0.96  0.00  0.00  0.00  0.00  0.00  0.04  0.00  0.00
  768pipe                 1.00   0.00  0.00  0.00  0.46  0.00  0.00  0.54  0.41  0.00
  768chan                 1.00   0.95  0.00  0.00  0.00  0.00  0.00  0.05  0.00  0.00
  770pipe                 1.00   0.00  0.00  0.00  0.07  0.00  0.00  0.93  0.00  0.00
  770chan                 1.00   0.94  0.00  0.00  0.03  0.00  0.00  0.02  0.00  0.00
  769pipe                 1.00   0.00  0.00  0.00  0.96  0.04  0.00  0.00  0.01  0.00
  769chan                 1.00   0.95  0.00  0.00  0.00  0.00  0.00  0.05  0.00  0.00
  782pipe                 1.00   0.00  0.00  0.00  0.04  0.00  0.00  0.96  0.00  0.00
  782chan                 1.00   0.95  0.00  0.00  0.03  0.00  0.00  0.02  0.00  0.00
  781pipe                 1.00   0.00  0.00  0.00  0.99  0.01  0.00  0.00  0.95  0.00
  781chan                 1.00   0.96  0.00  0.00  0.00  0.00  0.00  0.04  0.00  0.00
  780pipe                 1.00   0.00  0.00  0.00  0.06  0.00  0.00  0.94  0.00  0.00
  780chan                 1.00   0.95  0.02  0.00  0.03  0.00  0.00  0.00  0.99  0.00
  775pipe                 1.00   0.00  0.00  0.00  1.00  0.00  0.00  0.00  0.02  0.00
  775chan                 1.00   0.95  0.00  0.00  0.04  0.00  0.00  0.00  0.95  0.00
  774pipe                 1.00   0.63  0.00  0.00  0.37  0.00  0.00  0.00  0.64  0.00
  774chan                 1.00   0.95  0.01  0.00  0.04  0.00  0.00  0.00  0.99  0.00
  773pipe                 1.00   0.00  0.63  0.00  0.37  0.00  0.00  0.00  0.66  0.00
  773chan                 1.00   0.95  0.00  0.00  0.04  0.00  0.00  0.01  0.94  0.00
  772pipe                 1.00   0.00  0.00  0.00  0.06  0.00  0.00  0.94  0.00  0.00
  772chan                 1.00   0.95  0.00  0.00  0.04  0.00  0.00  0.01  0.00  0.00
  771pipe                 1.00   0.00  0.59  0.00  0.41  0.00  0.00  0.00  0.78  0.00
  771chan                 1.00   0.94  0.01  0.00  0.04  0.00  0.00  0.00  0.97  0.00
  DEANPIPE1               1.00   0.00  0.00  0.00  1.00  0.00  0.00  0.00  0.06  0.00
  DEANPIPE2               1.00   0.00  0.00  0.00  1.00  0.00  0.00  0.00  0.06  0.00
  DEANOVER                1.00   1.00  0.00  0.00  0.00  0.00  0.00  0.00  0.00  0.00
  TEUT_OVF                1.00   1.00  0.00  0.00  0.00  0.00  0.00  0.00  0.00  0.00
  TEUTPIPE1               1.00   0.00  0.00  0.00  1.00  0.00  0.00  0.00  0.00  0.00
  GBPIPE                  1.00   0.00  0.00  0.00  1.00  0.00  0.00  0.00  0.00  0.00
  GB_OVER                 1.00   1.00  0.00  0.00  0.00  0.00  0.00  0.00  0.00  0.00
  .21NAT                  1.00   0.00  0.00  0.00  1.00  0.00  0.00  0.00  0.00  0.00
  DEERWPIPE               1.00   0.00  0.00  0.00  1.00  0.00  0.00  0.00  0.00  0.00
  DEER_OVR                1.00   1.00  0.00  0.00  0.00  0.00  0.00  0.00  0.00  0.00
  .13_NAT                 1.00   0.00  0.00  0.00  1.00  0.00  0.00  0.00  0.00  0.00
  PATH_PIPE               1.00   0.00  0.00  0.00  1.00  0.00  0.00  0.00  0.00  0.00
  PATH_OV                 1.00   0.01  0.00  0.00  0.99  0.00  0.00  0.00  0.00  0.00
  BradleyIn               1.00   0.00  0.38  0.00  0.06  0.02  0.54  0.00  0.01  0.00
  Brad_Out                1.00   0.00  0.00  0.00  0.08  0.92  0.00  0.00  0.01  0.00
  BradBox                 1.00   0.00  0.59  0.00  0.38  0.03  0.00  0.00  0.97  0.00
  BradBoxOv               1.00   1.00  0.00  0.00  0.00  0.00  0.00  0.00  0.00  0.00
  s_config2               1.00   0.00  0.00  0.00  1.00  0.00  0.00  0.00  0.00  0.00
  LIB_1                   1.00   0.00  0.00  0.00  0.99  0.01  0.00  0.00  0.93  0.00
  LIB_2                   1.00   0.00  0.00  0.00  1.00  0.00  0.00  0.00  0.00  0.00
  LIB_3                   1.00   0.00  0.00  0.00  1.00  0.00  0.00  0.00  0.00  0.00
  LIB_4                   1.00   0.00  0.00  0.00  1.00  0.00  0.00  0.00  0.00  0.00
  LIB_5                   1.00   0.00  0.00  0.00  1.00  0.00  0.00  0.00  0.00  0.00
  LIB_6                   1.00   0.00  0.00  0.00  1.00  0.00  0.00  0.00  0.00  0.00
  LIB_7                   1.00   0.00  0.00  0.00  1.00  0.00  0.00  0.00  0.00  0.00
  LIB_8                   1.00   0.00  0.00  0.00  1.00  0.00  0.00  0.00  0.00  0.00
  LIB_9                   1.00   0.00  0.00  0.00  1.00  0.00  0.00  0.00  0.00  0.00
  LIB_10                  1.00   0.01  0.00  0.00  0.99  0.00  0.00  0.00  0.00  0.00
  LIB_12                  1.00   0.01  0.00  0.00  0.99  0.00  0.00  0.00  0.00  0.00
  
  
  *************************
  Conduit Surcharge Summary
  *************************
  
  ----------------------------------------------------------------------------
                                                           Hours        Hours 
                         --------- Hours Full --------   Above Full   Capacity
  Conduit                Both Ends  Upstream  Dnstream   Normal Flow   Limited
  ----------------------------------------------------------------------------
  644                         0.01      1.04      0.77      0.77         0.01
  657                         0.01      0.01      0.47      0.01         0.01
  817pipe                     0.68      0.68      0.98      0.36         0.37
  816pipe                     1.00      1.00      1.34      0.77         0.79
  815pipe1                    1.34      1.34      1.43      0.01         0.01
  815pipe2                    1.34      1.34      1.43      0.01         0.01
  814pipe                     1.42      1.43      1.43      0.41         0.42
  810pipe1                    0.01      0.10      0.01      0.19         0.01
  810pipe2                    0.01      0.38      0.01      0.51         0.01
  789pipe                     0.01      0.01      1.01      0.01         0.01
  803pipe                     0.01      0.63      0.01      0.77         0.01
  805pipe1                    0.43      0.43     23.45      0.11         0.01
  805pipe2                    0.43      0.43     23.35      0.22         0.01
  830pipe                     0.01      0.70      0.01      0.47         0.01
  831pipe                     1.50      1.56     23.74      0.21         0.19
  827pipe                     0.01      0.01      1.82      0.01         0.01
  826pipe                    23.63     23.73     23.63      0.08         0.02
  825pipe                    23.09     23.09     23.71      0.01         0.01
  51_7x10_1                   0.66      0.67      0.80      0.55         0.21
  51_7x10_2                   0.66      0.67      0.80      0.55         0.21
  47PIPE                     10.86     23.85     10.86     23.75        10.86
  804pipe                     0.76      0.95      0.76      0.88         0.60
  813pipe                     1.29      1.37      1.29      1.35         1.21
  812pipe                     1.16      1.19      1.16      1.30         1.16
  811pipe                     0.23      1.09      0.23      1.16         0.23
  838pip                      1.95      2.82      1.95      2.31         1.42
  839pipe                     2.69      2.69      2.81      0.01         0.01
  838pipe                     2.81      2.81      2.82      1.96         1.94
  36inch_1                    0.68      0.68      1.82      1.40         0.20
  54inch_1                    0.34      0.34      0.58      0.20         0.20
  36inch_2                    0.01      1.82      0.01      2.15         0.01
  54inch_2                    0.01      0.58      0.01      0.69         0.01
  848pipe                     0.97      2.80      0.97      3.04         0.97
  849_1                       0.01      0.01      0.01      0.90         0.01
  849_2                       0.01      0.01      0.01      0.90         0.01
  853pipe                    23.87     23.87     23.87      0.10         0.10
  861_1                       0.63      0.73      0.63      1.05         0.63
  861_2                       0.63      0.73      0.63      1.05         0.63
  883culv                     1.76      1.95      6.01      1.33         1.09
  889pipe                     0.67      0.67     23.73      0.01         0.01
  691pipe                     1.37      1.37      1.62      0.01         0.01
  892pipe                     1.33      6.67      1.55      7.74         0.89
  893pipe                     0.43      0.43      1.37      0.01         0.01
  55_5x12_1                   1.31      1.31      1.39      0.01         0.22
  55_5x12_2                   1.31      1.31      1.39      0.01         0.22
  708pipe                     1.12      1.14      1.15      0.26         0.23
  706pipe                     1.14      1.15      1.16      1.14         1.10
  704pipe                     1.20      1.20      1.22      1.14         1.11
  702pipe                     1.21      1.22      1.43      1.18         1.13
  700pipe                     1.37      1.56      1.47      1.31         1.05
  707pipe                     1.07      1.15      1.17      0.25         0.17
  705pipe                     1.14      1.25      1.17      0.43         0.30
  750p                        0.85      1.10      0.85      1.11         0.85
  701pipe                     0.18      1.28      0.18      1.30         0.18
  740pipe                     1.12      1.15     23.76      1.08         1.04
  768pipe                     0.80      1.45      0.88      1.48         0.79
  770pipe                     1.48      1.50      1.49      0.25         0.21
  769pipe                     1.45      1.49      1.45      1.52         1.45
  782pipe                     0.99      1.25      0.99      0.38         0.12
  781pipe                     0.97      0.97      1.22      0.01         0.01
  780pipe                     1.20      1.22      1.32      0.97         0.93
  775pipe                     1.40      1.40      1.43      0.18         0.16
  774pipe                     1.42      1.43      1.45      1.15         1.13
  773pipe                     1.41      1.45      1.44      0.77         0.72
  772pipe                     1.42      1.44      1.48      1.26         1.23
  771pipe                     1.46      1.48      1.50      0.34         0.31
  DEANPIPE1                   0.15      0.15      0.22      0.01         0.01
  DEANPIPE2                   0.15      0.15      0.22      0.01         0.01
  GBPIPE                      0.01      0.01      0.01      0.34         0.01
  DEERWPIPE                   0.01      0.56      0.01      1.69         0.01
  PATH_PIPE                  23.71     23.71     23.71      0.56         0.56
  BradleyIn                   0.01      0.01      4.52      0.01         0.01
  Brad_Out                    1.88     23.81      1.99      2.02         1.47
  

  Analysis begun on:  Tue Jun 23 21:14:57 2026
  Analysis ended on:  Tue Jun 23 21:15:06 2026
  Total elapsed time: 00:00:09