
  EPA STORM WATER MANAGEMENT MODEL - VERSION 5.2 (Build 5.2.4)
  ------------------------------------------------------------

   user2 - DUMMY cross-section test 
  
  ERROR 134: Node TW08010 has illegal DUMMY link connections.
  
  ERROR 134: Node TW09010 has illegal DUMMY link connections.
  
  ERROR 134: Node TW09010 has illegal DUMMY link connections.
  WARNING 02: maximum depth increased for Node TW07010

  Analysis begun on:  Tue Jun 23 21:11:00 2026
  Analysis ended on:  Tue Jun 23 21:11:00 2026
  Total elapsed time: < 1 sec