
  EPA STORM WATER MANAGEMENT MODEL - VERSION 5.2 (Build 5.2.4)
  ------------------------------------------------------------

  
  ERROR 209: undefined object CustomShape at line 1051 of [XSECT] section:
  644              CUSTOM       3.0              CustomShape 0          0          1

  
  ERROR 209: undefined object CustomShape at line 1054 of [XSECT] section:
  655              CUSTOM       3.5              CustomShape 0          0          1

  
  ERROR 209: undefined object CustomShape at line 1055 of [XSECT] section:
  656              CUSTOM       3.5              CustomShape 0          0          1

  
  ERROR 209: undefined object CustomShape at line 1056 of [XSECT] section:
  657              CUSTOM       3.5              CustomShape 0          0          1

  
  ERROR 209: undefined object CustomShape at line 1122 of [XSECT] section:
  817pipe          CUSTOM       2.5              CustomShape 0          0          1

  
  ERROR 209: undefined object CustomShape at line 1124 of [XSECT] section:
  816pipe          CUSTOM       2.0              CustomShape 0          0          1

  
  ERROR 209: undefined object CustomShape at line 1126 of [XSECT] section:
  815pipe1         CUSTOM       2.0              CustomShape 0          0          1

  
  ERROR 209: undefined object CustomShape at line 1128 of [XSECT] section:
  815pipe2         CUSTOM       2.0              CustomShape 0          0          1

  
  ERROR 209: undefined object CustomShape at line 1129 of [XSECT] section:
  814pipe          CUSTOM       2.0              CustomShape 0          0          1

  
  ERROR 209: undefined object CustomShape at line 1131 of [XSECT] section:
  810pipe1         CUSTOM       4.0              CustomShape 0          0          1

  
  ERROR 209: undefined object CustomShape at line 1133 of [XSECT] section:
  810pipe2         CUSTOM       3.0              CustomShape 0          0          1

  
  ERROR 209: undefined object CustomShape at line 1134 of [XSECT] section:
  789pipe          CUSTOM       4.0              CustomShape 0          0          1


  Analysis begun on:  Tue Jun 23 21:14:28 2026
  Analysis ended on:  Tue Jun 23 21:14:28 2026
  Total elapsed time: < 1 sec