
  EPA STORM WATER MANAGEMENT MODEL - VERSION 5.2 (Build 5.2.4)
  ------------------------------------------------------------

   user5 - DUMMY cross-section test 
  
  ERROR 134: Node 99 has illegal DUMMY link connections.

  Analysis begun on:  Tue Jun 23 21:14:28 2026
  Analysis ended on:  Tue Jun 23 21:14:28 2026
  Total elapsed time: < 1 sec