
  EPA STORM WATER MANAGEMENT MODEL - VERSION 5.2 (Build 5.2.4)
  ------------------------------------------------------------

  
  ERROR 211: invalid number  at line 318 of [XSECT] section:
  TW01220          MODBASKETHANDLE 8.0              0.0        0          0          1

  
  ERROR 211: invalid number  at line 319 of [XSECT] section:
  TW01240          MODBASKETHANDLE 9.0              0.0        0          0          1

  
  ERROR 211: invalid number  at line 320 of [XSECT] section:
  TW01260          MODBASKETHANDLE 8.0              0.0        0          0          1

  
  ERROR 211: invalid number  at line 321 of [XSECT] section:
  TW01280          MODBASKETHANDLE 9.0              0.0        0          0          1

  
  ERROR 211: invalid number  at line 325 of [XSECT] section:
  TW01350          MODBASKETHANDLE 5.0              0.0        0          0          1

  
  ERROR 211: invalid number  at line 326 of [XSECT] section:
  TW01355          MODBASKETHANDLE 1.5              0.0        0          0          1

  
  ERROR 211: invalid number  at line 327 of [XSECT] section:
  TW01357          MODBASKETHANDLE 6.5              0.0        0          0          1

  
  ERROR 211: invalid number  at line 328 of [XSECT] section:
  TW01360          MODBASKETHANDLE 4.5              0.0        0          0          1

  
  ERROR 211: invalid number  at line 329 of [XSECT] section:
  TW01370          MODBASKETHANDLE 4.5              0.0        0          0          1

  
  ERROR 211: invalid number  at line 330 of [XSECT] section:
  TW01380          MODBASKETHANDLE 4.5              0.0        0          0          1

  
  ERROR 211: invalid number  at line 331 of [XSECT] section:
  TW01385          MODBASKETHANDLE 4.0              0.0        0          0          1

  
  ERROR 211: invalid number  at line 332 of [XSECT] section:
  TW01390          MODBASKETHANDLE 3.5              0.0        0          0          1


  Analysis begun on:  Tue Jun 23 21:11:06 2026
  Analysis ended on:  Tue Jun 23 21:11:06 2026
  Total elapsed time: < 1 sec