
  EPA STORM WATER MANAGEMENT MODEL - VERSION 5.2 (Build 5.2.4)
  ------------------------------------------------------------

  
  ERROR 211: invalid number  at line 877 of [XSECT] section:
  CPORSHB          MODBASKETHANDLE 0.914            0.0        0          0          1

  
  ERROR 211: invalid number  at line 878 of [XSECT] section:
  CPORDOM          MODBASKETHANDLE 0.914            0.0        0          0          1

  
  ERROR 211: invalid number  at line 879 of [XSECT] section:
  CPORGRE          MODBASKETHANDLE 0.914            0.0        0          0          1

  
  ERROR 211: invalid number  at line 880 of [XSECT] section:
  CPORSPR          MODBASKETHANDLE 0.762            0.0        0          0          1

  
  ERROR 211: invalid number  at line 881 of [XSECT] section:
  CPORWLL          MODBASKETHANDLE 0.762            0.0        0          0          1

  
  ERROR 211: invalid number  at line 882 of [XSECT] section:
  CPORBAN          MODBASKETHANDLE 0.914            0.0        0          0          1

  
  ERROR 211: invalid number  at line 883 of [XSECT] section:
  CPORBUR          MODBASKETHANDLE 0.914            0.0        0          0          1

  
  ERROR 211: invalid number  at line 884 of [XSECT] section:
  CSMTING          MODBASKETHANDLE 0.762            0.0        0          0          1

  
  ERROR 211: invalid number  at line 885 of [XSECT] section:
  CSTMSHB          MODBASKETHANDLE 0.762            0.0        0          0          1

  
  ERROR 211: invalid number  at line 886 of [XSECT] section:
  CELCING          MODBASKETHANDLE 0.914            0.0        0          0          1

  
  ERROR 211: invalid number  at line 887 of [XSECT] section:
  CELCGRF          MODBASKETHANDLE 0.762            0.0        0          0          1

  
  ERROR 211: invalid number  at line 888 of [XSECT] section:
  CWELSHB          MODBASKETHANDLE 0.914            0.0        0          0          1


  Analysis begun on:  Tue Jun 23 21:11:56 2026
  Analysis ended on:  Tue Jun 23 21:11:56 2026
  Total elapsed time: < 1 sec