
  EPA STORM WATER MANAGEMENT MODEL - VERSION 5.2 (Build 5.2.4)
  ------------------------------------------------------------

  
  ERROR 205: invalid keyword SEMI_ELLIPTICAL at line 880 of [XSECT] section:
  CPORSPR          SEMI_ELLIPTICAL 0.762            0.0        0          0          1

  
  ERROR 211: invalid number  at line 882 of [XSECT] section:
  CPORBAN          MODBASKETHANDLE 0.914            0.0        0          0          1

  
  ERROR 205: invalid keyword SEMI_CIRCULAR at line 883 of [XSECT] section:
  CPORBUR          SEMI_CIRCULAR 0.914            0.0        0          0          1

  
  ERROR 209: undefined object CustomShape at line 919 of [XSECT] section:
  CLOGQUE          CUSTOM       0.762            CustomShape 0          0          1


  Analysis begun on:  Tue Jun 23 21:11:39 2026
  Analysis ended on:  Tue Jun 23 21:11:39 2026
  Total elapsed time: < 1 sec