
  EPA STORM WATER MANAGEMENT MODEL - VERSION 5.2 (Build 5.2.4)
  ------------------------------------------------------------

  
  ERROR 205: invalid keyword SEMI_ELLIPTICAL at line 380 of [XSECT] section:
  5                SEMI_ELLIPTICAL 0.6           0.0        0          0          1                    

  
  ERROR 211: invalid number  at line 382 of [XSECT] section:
  7                MODBASKETHANDLE 1.2           0.0        0          0          1                    

  
  ERROR 205: invalid keyword SEMI_CIRCULAR at line 383 of [XSECT] section:
  8                SEMI_CIRCULAR 0.6             0.0        0          0          1                    


  Analysis begun on:  Tue Jun 23 21:10:48 2026
  Analysis ended on:  Tue Jun 23 21:10:48 2026
  Total elapsed time: < 1 sec