
  EPA STORM WATER MANAGEMENT MODEL - VERSION 5.2 (Build 5.2.4)
  ------------------------------------------------------------

  Example User5 
  
  ****************
  Analysis Options
  ****************
  Flow Units ............... CFS
  Process Models:
    Rainfall/Runoff ........ YES
    RDII ................... NO
    Snowmelt ............... NO
    Groundwater ............ NO
    Flow Routing ........... YES
    Ponding Allowed ........ NO
    Water Quality .......... NO
  Infiltration Method ...... HORTON
  Flow Routing Method ...... DYNWAVE
  Surcharge Method ......... SLOT
  Starting Date ............ 08/11/1998 00:00:00
  Ending Date .............. 08/11/1998 23:59:00
  Antecedent Dry Days ...... 0.0
  Report Time Step ......... 00:05:00
  Wet Time Step ............ 00:01:00
  Dry Time Step ............ 00:01:00
  Routing Time Step ........ 10.00 sec
  Variable Time Step ....... YES
  Maximum Trials ........... 8
  Number of Threads ........ 1
  Head Tolerance ........... 0.001000 ft
  
  
  **************************        Volume         Depth
  Runoff Quantity Continuity     acre-feet        inches
  **************************     ---------       -------
  Total Precipitation ......       287.426         2.930
  Evaporation Loss .........         4.314         0.044
  Infiltration Loss ........       108.755         1.109
  Surface Runoff ...........       173.623         1.770
  Final Storage ............         0.801         0.008
  Continuity Error (%) .....        -0.023
  
  
  **************************        Volume        Volume
  Flow Routing Continuity        acre-feet      10^6 gal
  **************************     ---------     ---------
  Dry Weather Inflow .......         0.000         0.000
  Wet Weather Inflow .......       173.516        56.543
  Groundwater Inflow .......         0.000         0.000
  RDII Inflow ..............         0.000         0.000
  External Inflow ..........       121.511        39.596
  External Outflow .........       227.418        74.108
  Flooding Loss ............         0.000         0.000
  Evaporation Loss .........         0.279         0.091
  Exfiltration Loss ........         0.000         0.000
  Initial Stored Volume ....         3.241         1.056
  Final Stored Volume ......        77.666        25.309
  Continuity Error (%) .....        -2.379
  
  
  *************************
  Highest Continuity Errors
  *************************
  Node 3SB22 (34.30%)
  Node 4SB21 (25.69%)
  Node 2SB21 (17.45%)
  Node 18SB6 (-8.23%)
  Node 5SB21_OF (5.87%)
  
  
  ***************************
  Time-Step Critical Elements
  ***************************
  Link DEERWPIPE (53.93%)
  Link Brad_Out (34.78%)
  Link 789pipe (4.55%)
  Link LIB_5 (1.22%)
  Link LIB_7 (1.18%)
  
  
  ********************************
  Highest Flow Instability Indexes
  ********************************
  Link 892pipe (48)
  Link 695 (21)
  Link 36inch_2 (21)
  Link 658 (18)
  Link 812pipe (17)
  
  
  *********************************
  Most Frequent Nonconverging Nodes
  *********************************
  Node O.O_RM (1.26%)
  Node 8SB6 (0.21%)
  Node 6SB11 (0.12%)
  Node 16SB1 (0.12%)
  Node 4SB11 (0.12%)
  
  
  *************************
  Routing Time Step Summary
  *************************
  Minimum Time Step           :     0.10 sec
  Average Time Step           :     3.13 sec
  Maximum Time Step           :    10.00 sec
  % of Time in Steady State   :     0.00
  Average Iterations per Step :     2.34
  % of Steps Not Converging   :     1.26
  Time Step Frequencies       :
     10.000 -  1.585 sec      :    89.43 %
      1.585 -  0.251 sec      :    10.46 %
      0.251 -  0.040 sec      :     0.11 %
      0.040 -  0.006 sec      :     0.00 %
      0.006 -  0.001 sec      :     0.00 %
  
  
  ***************************
  Subcatchment Runoff Summary
  ***************************
  
  ------------------------------------------------------------------------------------------------------------------------------
                            Total      Total      Total      Total     Imperv       Perv      Total       Total     Peak  Runoff
                           Precip      Runon       Evap      Infil     Runoff     Runoff     Runoff      Runoff   Runoff   Coeff
  Subcatchment                 in         in         in         in         in         in         in    10^6 gal      CFS
  ------------------------------------------------------------------------------------------------------------------------------
  1SB5#1                     2.93       0.00       0.05       0.90       1.26       0.72       1.97        0.29    15.42   0.673
  2SB5#1                     2.93       0.00       0.05       0.89       1.31       0.67       1.98        0.18     8.67   0.675
  1SB23#1                    2.93       0.00       0.05       0.86       1.35       0.65       2.01        0.42    20.14   0.685
  2SB23#1                    2.93       0.00       0.04       1.07       0.96       0.85       1.81        0.32    17.41   0.619
  4SB23#1                    2.93       0.00       0.05       0.92       1.26       0.68       1.95        0.22     9.99   0.664
  3SB23#1                    2.93       0.00       0.04       0.96       1.15       0.77       1.92        0.31    16.80   0.655
  49SB1#1                    2.93       0.00       0.03       1.40       0.47       1.03       1.50        0.53    21.78   0.511
  51SB1#1                    2.93       0.00       0.05       0.77       1.39       0.72       2.11        0.07     5.76   0.720
  1121#1                     2.93       0.00       0.05       1.21       0.92       0.75       1.67        0.97    36.00   0.570
  6SB3#1                     2.93       0.00       0.04       1.13       0.85       0.91       1.76        0.16     9.09   0.601
  4SB3#1                     2.93       0.00       0.05       0.96       1.15       0.76       1.91        0.15     7.81   0.653
  5SB3#1                     2.93       0.00       0.04       0.98       1.08       0.82       1.90        0.13     7.58   0.648
  3SB3#1                     2.93       0.00       0.05       0.79       1.37       0.72       2.09        0.13     9.67   0.712
  2SB3#1                     2.93       0.00       0.04       0.96       1.10       0.82       1.92        0.13     8.37   0.655
  8SB3_OF#1                  2.93       0.00       0.02       1.40       0.27       1.23       1.50        0.18     9.63   0.514
  1SB4#1                     2.93       0.00       0.05       0.86       1.27       0.75       2.02        0.12     8.27   0.690
  2SB4#1                     2.93       0.00       0.05       0.85       1.31       0.71       2.02        0.08     5.08   0.691
  44SB1#1                    2.93       0.00       0.05       1.14       1.05       0.68       1.73        0.28     9.73   0.589
  45SB1#1                    2.93       0.00       0.04       1.14       0.92       0.83       1.75        0.25    11.51   0.596
  43SB1#1                    2.93       0.00       0.05       0.81       1.42       0.64       2.06        0.25    13.39   0.704
  8SB1#1                     2.93       0.00       0.04       1.43       0.62       0.83       1.45        0.40    13.55   0.495
  6SB1#1                     2.93       0.00       0.03       1.56       0.22       1.13       1.34        0.27     9.41   0.459
  2SB1#1                     2.93       0.00       0.09       0.26       2.33       0.19       2.53        0.22     5.27   0.863
  3SB1#1                     2.93       0.00       0.05       1.15       0.97       0.75       1.72        0.33    12.90   0.587
  4SB1#1                     2.93       0.00       0.04       1.33       0.78       0.77       1.54        0.46    15.77   0.527
  5SB1#1                     2.93       0.00       0.04       1.29       0.67       0.93       1.60        0.70    30.55   0.546
  7SB1#1                     2.93       0.00       0.04       1.27       0.74       0.88       1.62        0.45    19.06   0.552
  9SB1#1                     2.93       0.00       0.04       1.46       0.55       0.88       1.43        0.46    15.86   0.487
  11SB1#1                    2.93       0.00       0.06       0.73       1.58       0.55       2.13        0.36    15.65   0.726
  32SB1#1                    2.93       0.00       0.06       0.83       1.45       0.57       2.03        0.23     9.30   0.691
  34SB1#1                    2.93       0.00       0.05       0.89       1.37       0.60       1.97        0.47    18.64   0.672
  39SB1#1                    2.93       0.00       0.05       1.03       1.11       0.73       1.84        0.45    20.07   0.628
  38SB1#1                    2.93       0.00       0.05       0.95       1.28       0.63       1.91        0.19     7.22   0.653
  37SB1#1                    2.93       0.00       0.04       1.08       0.94       0.87       1.80        0.17     9.54   0.616
  35SB1#1                    2.93       0.00       0.05       1.00       1.11       0.77       1.88        0.29    14.94   0.642
  33SB1#1                    2.93       0.00       0.05       1.00       1.12       0.76       1.88        0.23    11.32   0.641
  12SB1#1                    2.93       0.00       0.05       1.06       1.11       0.70       1.81        0.31    12.34   0.618
  22SB1#1                    2.93       0.00       0.04       1.04       1.06       0.78       1.84        0.28    13.81   0.627
  21SB1#1                    2.93       0.00       0.04       1.18       0.89       0.81       1.71        0.53    22.72   0.582
  14SB1#1                    2.93       0.00       0.05       1.09       1.13       0.64       1.77        0.48    16.28   0.604
  13SB1#1                    2.93       0.00       0.04       1.10       0.97       0.81       1.79        0.37    17.63   0.609
  23SB1#1                    2.93       0.00       0.05       1.23       0.94       0.69       1.64        0.47    15.64   0.558
  20SB1#1                    2.93       0.00       0.04       1.11       0.93       0.84       1.78        0.43    21.36   0.607
  24SB1#1                    2.93       0.00       0.04       0.92       1.15       0.82       1.97        0.20    14.04   0.672
  26SB1#1                    2.93       0.00       0.04       1.08       0.91       0.90       1.80        0.20    11.53   0.616
  27SB1#1                    2.93       0.00       0.04       1.01       1.05       0.82       1.87        0.25    13.97   0.639
  28SB1#1                    2.93       0.00       0.05       1.02       1.16       0.69       1.85        0.51    20.81   0.631
  25SB1#1                    2.93       0.00       0.05       1.06       1.11       0.70       1.81        0.59    23.29   0.617
  19SB1#1                    2.93       0.00       0.04       1.07       1.03       0.77       1.81        0.27    12.26   0.616
  18SB1#1                    2.93       0.00       0.05       0.80       1.43       0.64       2.07        0.17     9.02   0.705
  15SB1#1                    2.93       0.00       0.05       1.00       1.12       0.76       1.87        0.21    10.34   0.639
  31SB1#1                    2.93       0.00       0.06       0.71       1.65       0.48       2.14        0.62    21.95   0.729
  40SB1#1                    2.93       0.00       0.04       1.22       0.77       0.90       1.66        0.70    32.25   0.568
  41SB1#1                    2.93       0.00       0.03       1.72       0.06       1.12       1.18        0.45    12.56   0.403
  46SB1#1                    2.93       0.00       0.04       1.07       1.03       0.77       1.81        0.31    14.29   0.617
  4SB5_OF#1                  2.93       0.00       0.03       1.24       0.49       1.17       1.67        0.15    11.61   0.569
  15SB6#1                    2.93       0.00       0.05       0.90       1.26       0.71       1.97        0.57    30.30   0.674
  14SB6#1                    2.93       0.00       0.03       1.61       0.20       1.09       1.29        0.17     5.05   0.442
  12SB6#1                    2.93       0.00       0.07       0.18       2.49       0.18       2.67        0.32    24.55   0.910
  19SB6#1                    2.93       0.00       0.04       1.09       0.91       0.89       1.80        0.24    13.81   0.613
  26SB6#1                    2.93       0.00       0.04       0.94       1.16       0.79       1.94        0.14     8.40   0.663
  25SB6#1                    2.93       0.00       0.04       1.02       1.08       0.78       1.86        0.39    19.74   0.634
  24SB6#1                    2.93       0.00       0.04       0.99       1.11       0.77       1.89        0.49    25.79   0.643
  20SB6#1                    2.93       0.00       0.04       1.09       0.86       0.94       1.80        0.18    11.19   0.615
  18SB6#1                    2.93       0.00       0.04       1.16       0.88       0.85       1.73        0.22    10.14   0.589
  17SB6#1                    2.93       0.00       0.06       0.69       1.60       0.56       2.17        0.21    10.76   0.739
  16SB6#1                    2.93       0.00       0.05       0.90       1.28       0.69       1.98        0.43    21.81   0.674
  11SB6#1                    2.93       0.00       0.05       0.85       1.39       0.62       2.01        0.37    16.27   0.686
  10SB6#1                    2.93       0.00       0.07       0.43       2.06       0.33       2.40        0.58    21.37   0.819
  21SB6#1                    2.93       0.00       0.04       1.01       1.08       0.79       1.87        0.23    12.48   0.639
  22SB6#1                    2.93       0.00       0.04       0.96       1.14       0.78       1.92        0.28    15.91   0.655
  23SB6#1                    2.93       0.00       0.05       0.86       1.32       0.70       2.02        0.37    20.96   0.688
  13SB6#1                    2.93       0.00       0.05       1.07       1.05       0.75       1.81        0.61    26.90   0.617
  7SB6#1                     2.93       0.00       0.06       0.53       1.89       0.43       2.32        0.18     8.55   0.792
  8SB6#1                     2.93       0.00       0.04       1.26       0.19       1.44       1.63        0.30    11.27   0.556
  5SB6#1                     2.93       0.00       0.03       1.35       0.38       1.17       1.55        0.24    13.02   0.530
  4SB6#1                     2.93       0.00       0.04       1.10       1.00       0.77       1.78        0.25    10.94   0.606
  3SB6#1                     2.93       0.00       0.04       1.04       1.04       0.80       1.84        0.21    10.81   0.628
  1SB22#1                    2.93       0.00       0.05       0.89       1.32       0.66       1.98        0.22    10.60   0.677
  2SB22#1                    2.93       0.00       0.03       1.64       0.29       0.96       1.25        0.20     5.37   0.428
  2SB21#1                    2.93       0.00       0.04       1.54       0.42       0.94       1.35        0.21     6.67   0.462
  1SB21#1                    2.93       0.00       0.05       0.85       1.34       0.69       2.03        0.19    10.99   0.692
  1SB20#1                    2.93       0.00       0.05       0.83       1.43       0.60       2.03        0.25    10.91   0.693
  1SB7#1                     2.93       0.00       0.03       1.24       0.68       0.97       1.65        0.25    12.37   0.564
  2SB7#1                     2.93       0.00       0.05       0.94       1.18       0.76       1.94        0.08     4.54   0.661
  3SB7#1                     2.93       0.00       0.03       1.26       0.66       0.98       1.63        0.09     4.54   0.557
  5SB7_OF#1                  2.93       0.00       0.02       1.39       0.23       1.29       1.52        0.26    17.39   0.519
  2SB20_OF#1                 2.93       0.00       0.05       0.89       1.25       0.73       1.98        0.33    18.61   0.676
  1SB19#1                    2.93       0.00       0.06       0.74       1.31       0.82       2.12        0.37    16.15   0.724
  2SB19#1                    2.93       0.00       0.03       1.67       0.11       1.13       1.24        0.11     3.36   0.422
  4SB19_OF#1                 2.93       0.00       0.02       1.41       0.18       1.32       1.50        0.11     7.47   0.512
  4SB9#1                     2.93       0.00       0.03       1.42       0.45       1.02       1.48        0.61    24.19   0.505
  3SB9#1                     2.93       0.00       0.03       1.45       0.30       1.15       1.46        0.26    11.10   0.497
  1SB9#1                     2.93       0.00       0.04       1.20       0.83       0.85       1.68        0.41    18.25   0.574
  SB1018_OF#1                2.93       0.00       0.02       1.35       0.27       1.29       1.56        0.10     7.37   0.532
  SB1018_OF#2                2.93       0.00       0.03       1.06       0.80       1.04       1.84        0.21    18.73   0.628
  SB1018_OF#3                2.93       0.00       0.04       0.88       1.20       0.80       2.00        0.65    47.16   0.682
  17SB11#1                   2.93       0.00       0.05       1.10       1.04       0.73       1.77        1.15    46.00   0.605
  17SB11#2                   2.93       0.00       0.04       1.33       0.62       0.94       1.56        1.58    65.74   0.532
  17SB11#3                   2.93       0.00       0.06       0.57       1.76       0.54       2.30        0.57    46.53   0.785
  16SB11#1                   2.93       0.00       0.05       1.09       1.03       0.75       1.78        1.23    52.12   0.608
  15SB11#1                   2.93       0.00       0.04       1.24       0.80       0.85       1.65        0.76    32.03   0.562
  14SB11#1                   2.93       0.00       0.04       1.26       0.78       0.85       1.62        0.50    20.65   0.554
  13SB11#1                   2.93       0.00       0.04       1.23       0.73       0.93       1.66        0.82    39.58   0.568
  5SB11#1                    2.93       0.00       0.06       0.53       1.69       0.63       2.32        0.57    28.33   0.793
  11SB11#1                   2.93       0.00       0.04       1.15       0.85       0.89       1.74        0.35    17.75   0.593
  10SB11#1                   2.93       0.00       0.04       1.15       0.83       0.91       1.74        0.36    19.04   0.593
  9SB11#1                    2.93       0.00       0.03       1.39       0.42       1.10       1.51        0.24    10.70   0.516
  12SB11#1                   2.93       0.00       0.07       0.43       2.06       0.35       2.41        0.41    17.74   0.822
  8SB11#1                    2.93       0.00       0.05       0.59       1.73       0.55       2.28        0.19    14.41   0.777
  7SB11#1                    2.93       0.00       0.07       0.34       2.19       0.31       2.50        0.28    16.05   0.854
  6SB11#1                    2.93       0.00       0.07       0.47       2.01       0.35       2.36        0.60    21.44   0.805
  4SB11#1                    2.93       0.00       0.07       0.50       1.75       0.59       2.34        0.73    32.52   0.799
  2SB11#1                    2.93       0.00       0.07       0.52       1.75       0.57       2.32        0.81    30.07   0.791
  2SB11#2                    2.93       0.00       0.06       0.69       1.35       0.82       2.17        1.00    52.83   0.742
  5SB17#1                    2.93       0.00       0.04       1.08       1.03       0.77       1.80        0.41    18.47   0.615
  8SB17#1                    2.93       0.00       0.04       1.25       0.76       0.89       1.64        0.39    17.35   0.560
  7SB17#1                    2.93       0.00       0.04       1.10       0.98       0.80       1.78        0.35    16.37   0.607
  6SB17#1                    2.93       0.00       0.04       1.19       0.77       0.92       1.70        0.25    12.73   0.579
  9SB17#1                    2.93       0.00       0.03       1.34       0.47       1.09       1.56        0.23    11.41   0.534
  16SB17#1                   2.93       0.00       0.04       1.27       0.73       0.89       1.62        0.18     7.93   0.552
  10SB17#1                   2.93       0.00       0.03       1.52       0.29       1.09       1.38        0.27     9.34   0.471
  14SB17#1                   2.93       0.00       0.04       1.30       0.76       0.82       1.58        0.19     7.24   0.539
  11SB17#1                   2.93       0.00       0.04       1.14       0.85       0.90       1.75        0.23    12.01   0.596
  13SB17#1                   2.93       0.00       0.04       1.84       0.15       0.90       1.05        0.10     2.06   0.358
  17SB17#1                   2.93       0.00       0.04       1.60       0.50       0.78       1.28        0.32     8.94   0.437
  4SB17#1                    2.93       0.00       0.04       0.97       1.12       0.80       1.91        0.36    20.76   0.652
  3SB17#1                    2.93       0.00       0.05       0.85       1.38       0.64       2.02        0.35    16.24   0.688
  2SB17#1                    2.93       0.00       0.06       0.83       1.13       0.90       2.03        0.51    21.06   0.693
  SB1216_OF#1                2.93       0.00       0.05       0.75       1.25       0.86       2.12        0.43    20.99   0.722
  SB1216_OF#2                2.93       0.00       0.07       0.17       2.32       0.36       2.68        0.28    22.85   0.913
  1SB14#1                    2.93       0.00       0.04       0.94       1.16       0.78       1.94        0.18    10.83   0.661
  2SB14#1                    2.93       0.00       0.04       1.26       0.70       0.93       1.63        0.71    32.21   0.556
  3SB14#1                    2.93       0.00       0.04       1.20       0.78       0.91       1.69        0.28    13.73   0.577
  4SB14#1                    2.93       0.00       0.04       1.12       0.82       0.95       1.77        0.26    15.57   0.603
  7SB14#1                    2.93       0.00       0.02       1.55       0.17       1.18       1.36        0.18     6.68   0.463
  6SB14#1                    2.93       0.00       0.05       0.81       1.38       0.68       2.06        0.18    10.78   0.704
  5SB14#1                    2.93       0.00       0.02       1.61       0.12       1.18       1.30        0.13     4.48   0.443
  9SB14#1                    2.93       0.00       0.04       1.08       0.97       0.84       1.81        0.30    15.72   0.617
  8SB14#1                    2.93       0.00       0.05       0.81       1.37       0.70       2.07        0.12     7.96   0.705
  10SB14#1                   2.93       0.00       0.06       0.73       1.63       0.49       2.11        0.49    16.74   0.722
  11SB14_OF#1                2.93       0.00       0.03       1.71       0.13       1.06       1.19        0.59    15.34   0.407
  11SB14_OF#2                2.93       0.00       0.05       0.78       1.21       0.88       2.09        0.95    45.01   0.714
  0.10_UP#1                  2.93       0.00       0.04       1.30       0.74       0.85       1.58        4.85   190.21   0.540
  3SB21#1                    2.93       0.00       0.03       1.50       0.40       0.99       1.39        0.16     5.45   0.476
  
  
  ******************
  Node Depth Summary
  ******************
  
  ---------------------------------------------------------------------------------
                                 Average  Maximum  Maximum  Time of Max    Reported
                                   Depth    Depth      HGL   Occurrence   Max Depth
  Node                 Type         Feet     Feet     Feet  days hr:min        Feet
  ---------------------------------------------------------------------------------
  0.10_RM              JUNCTION     9.29     9.96   650.56     0  01:09        9.95
  0.10_UP              JUNCTION     9.21    10.02   650.72     0  01:09       10.02
  0.15_RM              JUNCTION     6.08     7.02   650.92     0  01:07        7.01
  102                  JUNCTION     0.23     3.09   687.59     0  00:20        3.09
  1050                 JUNCTION     1.95     4.90   678.23     0  02:18        4.90
  10SB1                JUNCTION     1.44     5.37   681.91     0  00:36        5.36
  10SB11               JUNCTION     0.12     1.19   693.99     0  00:15        1.19
  10SB14               JUNCTION     0.73     7.73   659.73     0  00:26        7.73
  10SB17               JUNCTION     0.51     6.40   672.43     0  00:30        6.40
  10SB6                JUNCTION     0.68     7.29   688.21     0  00:25        7.29
  1118                 JUNCTION     1.94     9.24   681.14     0  00:41        9.12
  1119                 JUNCTION     1.97     9.28   681.15     0  00:43        9.19
  1120                 JUNCTION     2.01     9.44   681.27     0  00:41        9.32
  1121                 JUNCTION     2.04     9.50   681.30     0  00:41        9.36
  1122                 JUNCTION     2.06     9.55   681.32     0  00:41        9.40
  1123                 JUNCTION     2.09     9.49   681.22     0  00:42        9.40
  1124                 JUNCTION     2.12     9.45   681.15     0  00:42        9.38
  1125                 JUNCTION     2.15     9.45   681.12     0  00:41        9.37
  1126                 JUNCTION     2.18     9.63   681.26     0  00:42        9.48
  1127                 JUNCTION     2.21     9.67   681.27     0  00:42        9.51
  1128                 JUNCTION     1.59     6.82   678.41     0  00:42        6.70
  11SB1                JUNCTION     0.12     0.86   683.99     0  00:21        0.85
  11SB11               JUNCTION     0.09     0.88   695.68     0  00:15        0.88
  11SB14_OF            JUNCTION     4.64     6.88   652.38     0  01:06        6.87
  11SB17               JUNCTION     0.56     7.81   664.83     0  00:41        7.80
  11SB6                JUNCTION     0.80     7.34   691.34     0  00:13        7.32
  12SB1                JUNCTION     0.11     0.78   692.78     0  00:21        0.78
  12SB11               JUNCTION     0.09     0.64   744.94     0  00:21        0.64
  12SB6                JUNCTION     0.20     2.23   692.23     0  00:12        2.17
  13SB1                JUNCTION     0.20     1.40   689.80     0  00:24        1.40
  13SB11               JUNCTION     1.13    11.31   694.11     0  00:26       11.31
  13SB17               JUNCTION     0.91    11.02   664.20     0  00:43       11.02
  13SB6                JUNCTION     0.16     1.39   697.39     0  00:20        1.39
  14SB1                JUNCTION     0.17     1.26   696.26     0  00:22        1.26
  14SB11               JUNCTION     1.08    10.85   699.30     0  00:24       10.85
  14SB17               JUNCTION     0.91    10.30   666.24     0  00:45       10.30
  14SB6                JUNCTION     0.24     1.92   695.92     0  00:20        1.92
  15SB1                JUNCTION     0.41     2.53   681.03     0  00:24        2.53
  15SB11               JUNCTION     1.08    10.94   701.69     0  00:22       10.93
  15SB17               JUNCTION     0.74     7.97   666.97     0  00:35        7.96
  15SB6                JUNCTION     0.33     3.42   703.42     0  00:15        3.42
  16SB1                JUNCTION     1.11     5.24   680.74     0  00:30        5.24
  16SB11               JUNCTION     1.10    11.39   703.54     0  00:16       11.38
  16SB17               JUNCTION     0.09     0.68   669.18     0  00:16        0.67
  16SB6                JUNCTION     0.70     7.05   692.95     0  00:10        7.02
  17SB1                JUNCTION     1.17     4.69   680.10     0  00:31        4.69
  17SB11               JUNCTION     1.06    11.39   704.99     0  00:12       11.38
  17SB17               JUNCTION     0.49     6.09   668.48     0  00:24        6.09
  17SB6                JUNCTION     0.70     7.78   700.78     0  00:09        7.77
  18SB1                JUNCTION     0.23     1.86   682.76     0  00:21        1.86
  18SB17               JUNCTION     0.87     9.67   661.48     0  00:41        9.66
  18SB6                JUNCTION     0.63     8.83   709.83     0  00:08        8.52
  19SB1                JUNCTION     0.09     0.78   683.78     0  00:19        0.77
  19SB17               JUNCTION     2.33     8.00   656.35     0  01:02        7.96
  19SB6                JUNCTION     0.09     0.76   718.76     0  00:17        0.76
  1SB11_OF             JUNCTION     2.31     8.20   658.83     0  01:05        8.20
  1SB14                JUNCTION     0.06     0.63   691.13     0  00:13        0.63
  1SB17_OF             JUNCTION     2.51     6.48   654.44     0  01:06        6.48
  1SB19                JUNCTION     0.13     0.97   670.97     0  00:21        0.96
  1SB20                JUNCTION     0.09     0.72   678.72     0  00:21        0.72
  1SB21                JUNCTION     0.11     0.63   677.63     0  00:15        0.63
  1SB22                JUNCTION     0.11     0.65   679.65     0  00:16        0.64
  1SB23                JUNCTION     0.10     0.87   682.87     0  00:16        0.87
  1SB3_MIL             JUNCTION     0.42     2.69   682.60     0  00:36        2.69
  1SB4                 JUNCTION     0.05     0.60   683.15     0  00:12        0.59
  1SB5                 JUNCTION     0.09     0.81   678.41     0  00:15        0.81
  1SB6_OF              JUNCTION     6.53     8.21   674.19     0  01:02        8.20
  1SB7                 JUNCTION     0.08     0.75   679.16     0  00:13        0.75
  1SB9                 JUNCTION     0.14     2.17   678.27     0  00:15        2.17
  20SB1                JUNCTION     0.14     1.04   689.04     0  00:21        1.04
  20SB6                JUNCTION     0.11     1.02   710.52     0  00:14        1.02
  21SB1                JUNCTION     0.14     1.26   701.76     0  00:16        1.25
  21SB6                JUNCTION     0.07     0.68   710.68     0  00:15        0.68
  22SB1                JUNCTION     0.07     0.66   708.66     0  00:15        0.66
  22SB6                JUNCTION     0.09     0.87   706.87     0  00:15        0.87
  23SB1                JUNCTION     0.10     0.69   705.69     0  00:21        0.68
  23SB6                JUNCTION     0.16     1.64   698.64     0  00:16        1.63
  24SB1                JUNCTION     0.05     0.59   706.59     0  00:12        0.58
  24SB6                JUNCTION     0.12     1.08   717.48     0  00:15        1.08
  25SB1                JUNCTION     0.11     0.83   696.83     0  00:21        0.82
  25SB6                JUNCTION     0.11     1.04   719.84     0  00:15        1.04
  26SB1                JUNCTION     0.06     0.73   697.73     0  00:12        0.72
  26SB6                JUNCTION     0.05     0.57   724.47     0  00:12        0.57
  27SB1                JUNCTION     0.10     1.15   691.15     0  00:12        1.14
  28SB1                JUNCTION     0.13     1.21   689.21     0  00:15        1.21
  29SB1                JUNCTION     0.18     1.55   685.55     0  00:17        1.55
  2SB1                 JUNCTION     0.12     0.72   699.15     0  00:30        0.72
  2SB11                JUNCTION     1.30    12.73   677.18     0  00:36       12.73
  2SB14                JUNCTION     0.21     1.80   685.50     0  00:22        1.79
  2SB17                JUNCTION     0.58     6.05   674.18     0  00:23        6.05
  2SB19                JUNCTION     0.07     0.46   669.77     0  00:30        0.46
  2SB20_OF             JUNCTION    11.92    13.70   674.18     0  01:02       13.70
  2SB21                JUNCTION     4.72     5.68   673.28     0  02:38        5.67
  2SB22                JUNCTION     2.30     3.16   673.26     0  02:38        3.16
  2SB23                JUNCTION     0.09     0.89   678.89     0  00:16        0.89
  2SB2_MIL             JUNCTION     0.74     6.14   681.74     0  00:32        5.88
  2SB3                 JUNCTION     0.74     4.83   681.96     0  00:35        4.83
  2SB4                 JUNCTION     0.11     1.04   679.59     0  00:15        1.04
  2SB5                 JUNCTION     0.07     0.63   678.23     0  00:16        0.62
  2SB6                 JUNCTION     2.31     5.13   675.61     0  00:57        5.11
  2SB7                 JUNCTION     0.05     0.53   678.49     0  00:13        0.52
  2SB9                 JUNCTION     0.10     1.13   668.13     0  00:17        1.13
  30SB1                JUNCTION     0.25     1.97   684.07     0  00:19        1.97
  31SB1                JUNCTION     0.15     0.91   684.91     0  00:22        0.91
  32SB1                JUNCTION     0.27     2.17   680.34     0  00:37        2.17
  33SB1                JUNCTION     0.90     2.91   678.23     0  02:19        2.91
  34SB1                JUNCTION     0.11     0.78   686.78     0  00:21        0.77
  35SB1                JUNCTION     0.20     1.74   681.75     0  00:56        1.74
  36SB1                JUNCTION     0.41     3.24   681.75     0  00:58        3.24
  37SB1                JUNCTION     0.32     2.41   681.75     0  00:57        2.41
  38SB1                JUNCTION     0.12     0.98   683.18     0  00:21        0.97
  39SB1                JUNCTION     0.10     0.89   687.84     0  00:16        0.89
  3SB1                 JUNCTION     0.20     1.48   698.73     0  00:21        1.46
  3SB14                JUNCTION     0.16     1.30   683.30     0  00:23        1.30
  3SB17                JUNCTION     0.15     1.29   676.29     0  00:19        1.29
  3SB19                JUNCTION     0.11     1.05   665.87     0  00:21        1.04
  3SB21                JUNCTION     3.03     3.96   673.31     0  02:39        3.88
  3SB22                JUNCTION     3.73     4.66   673.26     0  02:39        4.65
  3SB23                JUNCTION     0.21     1.75   676.41     0  00:22        1.74
  3SB3                 JUNCTION     0.21     1.40   681.96     0  00:34        1.40
  3SB5                 JUNCTION     0.17     1.42   674.35     0  01:00        1.42
  3SB6                 JUNCTION     0.14     1.24   675.63     0  00:56        1.22
  3SB7                 JUNCTION     0.16     1.40   678.22     0  00:59        1.40
  3SB9                 JUNCTION     0.21     1.56   669.19     0  00:21        1.55
  40SB1                JUNCTION     1.37     3.64   678.64     0  00:31        3.64
  41SB1                JUNCTION     1.75     4.43   678.23     0  02:19        4.43
  42SB1                JUNCTION     2.07     5.37   678.23     0  02:17        5.37
  43SB1                JUNCTION     0.11     0.75   680.15     0  00:12        0.75
  44SB1                JUNCTION     0.10     0.71   681.01     0  00:21        0.70
  45SB1                JUNCTION     0.17     1.15   679.65     0  00:22        1.15
  46SB1                JUNCTION     1.97     5.12   676.63     0  00:57        5.11
  47SB1                JUNCTION     3.14     6.26   676.17     0  00:47        6.25
  48SB1_OF             JUNCTION     3.82     7.15   676.23     0  00:45        7.14
  49SB1                JUNCTION     4.14     5.67   678.29     0  00:44        5.67
  4SB1                 JUNCTION     0.19     1.55   697.11     0  00:21        1.54
  4SB11                JUNCTION     1.43    14.04   682.44     0  00:34       14.04
  4SB14                JUNCTION     0.15     1.17   678.17     0  00:22        1.16
  4SB17                JUNCTION     0.10     1.10   679.10     0  00:13        1.09
  4SB19_OF             JUNCTION     1.76     5.68   664.11     0  01:03        5.67
  4SB21                JUNCTION     5.71     6.67   673.27     0  02:38        6.67
  4SB22_OF             JUNCTION     7.43     9.15   674.19     0  01:02        9.14
  4SB23                JUNCTION     0.09     0.73   676.90     0  00:17        0.73
  4SB3                 JUNCTION     0.07     0.63   684.25     0  00:20        0.63
  4SB5_OF              JUNCTION     5.67     7.46   674.35     0  01:01        7.45
  4SB6                 JUNCTION     0.09     0.72   680.56     0  00:17        0.72
  4SB7                 JUNCTION     0.27     2.61   678.22     0  00:59        2.61
  4SB9                 JUNCTION     0.10     0.85   677.85     0  00:15        0.84
  50SB1                JUNCTION     4.29     5.79   678.26     0  00:44        5.78
  51SB1                JUNCTION     0.13     2.21   677.41     0  00:45        2.19
  52SB1_OF             JUNCTION     3.31     7.58   677.28     0  00:45        7.57
  53SB1_OF             JUNCTION     2.44     7.56   678.26     0  00:44        7.49
  5SB1                 JUNCTION     0.71     2.62   692.04     0  00:30        2.62
  5SB11                JUNCTION     1.18    11.36   686.36     0  00:30       11.36
  5SB14                JUNCTION     0.11     1.02   670.02     0  00:13        1.02
  5SB17                JUNCTION     0.11     0.94   669.04     0  00:20        0.94
  5SB21_OF             JUNCTION     9.43    11.19   674.19     0  01:03       11.18
  5SB23                JUNCTION     0.15     1.22   675.30     0  00:22        1.21
  5SB3                 JUNCTION     0.06     0.63   683.19     0  00:15        0.63
  5SB6                 JUNCTION     0.70     5.32   681.36     0  00:24        5.31
  5SB7_OF              JUNCTION     8.11     9.84   674.19     0  01:02        9.83
  5SB9_OF              JUNCTION     1.64     4.95   660.98     0  01:03        4.95
  6SB1                 JUNCTION     0.05     0.46   704.06     0  00:30        0.46
  6SB11                JUNCTION     0.93    11.06   690.56     0  00:28       11.06
  6SB14                JUNCTION     0.08     0.73   673.73     0  00:15        0.73
  6SB17                JUNCTION     0.33     2.09   668.29     0  00:30        2.09
  6SB3                 JUNCTION     0.07     0.65   680.18     0  00:12        0.65
  745                  JUNCTION     5.78     7.45   674.19     0  01:02        7.44
  747                  JUNCTION     1.42     5.36   664.73     0  01:02        5.34
  751                  JUNCTION     0.54     1.74   673.84     0  01:04        1.74
  754                  JUNCTION     0.49     6.39   686.39     0  00:22        6.39
  756                  JUNCTION     0.50     7.08   686.35     0  00:27        7.06
  757                  JUNCTION     0.68     7.27   689.55     0  00:18        7.26
  758                  JUNCTION     0.74     7.32   690.37     0  00:15        7.30
  7SB1                 JUNCTION     0.79     3.44   687.61     0  00:30        3.43
  7SB11                JUNCTION     0.55     6.92   691.52     0  00:27        6.91
  7SB14                JUNCTION     0.06     0.50   680.50     0  00:21        0.50
  7SB17                JUNCTION     0.10     0.86   669.06     0  00:15        0.86
  7SB3                 JUNCTION     0.70     4.92   679.27     0  00:39        4.92
  7SB6                 JUNCTION     0.42     7.01   686.01     0  00:25        7.01
  800                  JUNCTION     2.97     8.19   658.06     0  01:04        8.19
  802                  JUNCTION     4.73     6.88   652.28     0  01:07        6.87
  818                  JUNCTION     2.64     7.69   678.19     0  00:42        7.59
  822                  JUNCTION     3.81     6.97   676.04     0  00:46        6.96
  824                  JUNCTION     4.30     6.46   674.86     0  00:58        6.45
  8SB1                 JUNCTION     0.22     1.18   683.18     0  00:24        1.18
  8SB11                JUNCTION     0.53     5.06   692.11     0  00:22        5.04
  8SB14                JUNCTION     0.07     0.53   681.53     0  00:18        0.53
  8SB17                JUNCTION     0.09     0.84   671.14     0  00:15        0.84
  8SB3_OF              JUNCTION     2.98     7.54   677.62     0  00:45        7.54
  8SB6                 JUNCTION     0.40     6.72   684.72     0  00:26        6.71
  9SB1                 JUNCTION     1.02     2.41   683.12     0  00:23        2.40
  9SB11                JUNCTION     0.24     1.90   693.40     0  00:22        1.90
  9SB14                JUNCTION     0.19     1.50   669.50     0  00:24        1.50
  9SB17                JUNCTION     0.08     0.79   668.79     0  00:15        0.78
  O.15_UP              JUNCTION     6.03     7.79   651.79     0  01:07        7.77
  SB1018_OF            JUNCTION     1.64     5.84   659.11     0  01:05        5.84
  SB1216_OF            JUNCTION     2.65     6.56   654.36     0  01:06        6.55
  O.O_RM               OUTFALL     12.20    12.20   650.00     0  00:00       12.20
  1SB1                 STORAGE      1.03     4.02   708.47     0  01:13        4.02
  99                   STORAGE      2.84     5.88   687.88     0  00:39        5.87
  
  
  *******************
  Node Inflow Summary
  *******************
  
  -------------------------------------------------------------------------------------------------
                                  Maximum  Maximum                  Lateral       Total        Flow
                                  Lateral    Total  Time of Max      Inflow      Inflow     Balance
                                   Inflow   Inflow   Occurrence      Volume      Volume       Error
  Node                 Type           CFS      CFS  days hr:min    10^6 gal    10^6 gal     Percent
  -------------------------------------------------------------------------------------------------
  0.10_RM              JUNCTION      0.00  1361.70     0  01:08           0        78.2       5.478
  0.10_UP              JUNCTION    190.21  1369.95     0  01:07        4.85        79.4       1.582
  0.15_RM              JUNCTION      0.00  1309.96     0  01:07           0          75       0.562
  102                  JUNCTION   1499.92  1499.92     0  00:20        28.8        28.8       0.014
  1050                 JUNCTION      0.00   437.18     0  00:37           0        21.9       0.092
  10SB1                JUNCTION      0.00   197.30     0  00:28           0        12.7      -0.246
  10SB11               JUNCTION     19.04    37.71     0  00:12       0.357       0.703      -0.286
  10SB14               JUNCTION     16.74   115.45     0  00:23       0.486        2.82       0.109
  10SB17               JUNCTION      9.34     9.34     0  00:21       0.267       0.267       2.097
  10SB6                JUNCTION     21.37   176.49     0  00:20       0.576         3.7      -0.383
  1118                 JUNCTION      0.00  1959.68     0  00:29           0          33      -0.082
  1119                 JUNCTION      0.00  2032.58     0  00:28           0        30.9       0.004
  1120                 JUNCTION      0.00  2036.69     0  00:28           0        29.2       0.094
  1121                 JUNCTION     36.00  1414.71     0  00:30       0.965        29.7       0.026
  1122                 JUNCTION      0.00  1042.85     0  00:24           0        29.7       0.030
  1123                 JUNCTION      0.00  1112.52     0  00:30           0        29.9       0.036
  1124                 JUNCTION      0.00  1270.15     0  00:32           0        30.1       0.012
  1125                 JUNCTION      0.00  1338.98     0  00:32           0        29.9       0.008
  1126                 JUNCTION      0.00  1623.72     0  00:30           0        29.7       0.116
  1127                 JUNCTION      0.00   895.49     0  00:35           0        29.6       0.028
  1128                 JUNCTION      0.00   842.16     0  00:42           0        29.6       0.008
  11SB1                JUNCTION     15.65    15.65     0  00:21       0.356       0.356      -0.828
  11SB11               JUNCTION     17.75    17.75     0  00:12       0.346       0.346       0.014
  11SB14_OF            JUNCTION     58.10  1278.93     0  01:05        1.54        75.8       0.619
  11SB17               JUNCTION     12.01    12.01     0  00:12       0.228       0.228       0.356
  11SB6                JUNCTION     16.27   180.38     0  00:11       0.372        3.18       0.344
  12SB1                JUNCTION     12.34    12.34     0  00:21       0.309       0.309      -0.533
  12SB11               JUNCTION     17.74    17.74     0  00:21       0.408       0.408       0.949
  12SB6                JUNCTION     24.55    24.55     0  00:12       0.323       0.323       0.290
  13SB1                JUNCTION     17.63    81.70     0  00:21       0.366        1.96      -0.108
  13SB11               JUNCTION     39.58   264.73     0  00:24       0.821        6.45      -0.955
  13SB17               JUNCTION      2.06    75.43     0  00:47       0.105        2.59      -0.235
  13SB6                JUNCTION     26.90    74.44     0  00:16        0.61         1.5       0.169
  14SB1                JUNCTION     16.28    52.06     0  00:21       0.482        1.29       0.356
  14SB11               JUNCTION     20.65   236.13     0  00:22       0.503        5.66       0.547
  14SB17               JUNCTION      7.24    74.12     0  00:37       0.194        2.25      -0.358
  14SB6                JUNCTION      5.05    34.65     0  00:15       0.166       0.734       0.364
  15SB1                JUNCTION     10.34   217.86     0  00:22       0.209        5.24       0.375
  15SB11               JUNCTION     32.03   235.90     0  00:15       0.756        5.27       2.303
  15SB17               JUNCTION      0.00    65.37     0  00:28           0        1.81       1.074
  15SB6                JUNCTION     30.30    30.30     0  00:15       0.566       0.566      -0.385
  16SB1                JUNCTION      0.00   238.02     0  00:24           0        5.84      -0.111
  16SB11               JUNCTION     52.12   204.27     0  00:15        1.23        4.51      -0.133
  16SB17               JUNCTION      7.93     7.93     0  00:15       0.184       0.184       1.187
  16SB6                JUNCTION     21.81   151.30     0  00:09       0.428        2.46      -1.422
  17SB1                JUNCTION      0.00   296.79     0  00:31           0        16.3       0.007
  17SB11               JUNCTION    153.29   153.29     0  00:12        3.29        3.29       0.272
  17SB17               JUNCTION      8.94     8.94     0  00:21       0.315       0.315       0.067
  17SB6                JUNCTION     10.76   452.23     0  00:08       0.207        2.01      -1.001
  18SB1                JUNCTION      9.02   135.29     0  00:19       0.172        3.06      -0.121
  18SB17               JUNCTION      0.00    82.15     0  00:47           0        2.91       0.350
  18SB6                JUNCTION     10.14    85.87     0  00:15       0.215        1.66      -7.607
  19SB1                JUNCTION     12.26    12.26     0  00:15       0.266       0.266      -0.522
  19SB17               JUNCTION      0.00   129.43     0  00:23           0        4.12      -0.175
  19SB6                JUNCTION     13.81    13.81     0  00:12       0.242       0.242      -1.881
  1SB11_OF             JUNCTION      0.00   837.49     0  01:05           0        54.8      -0.009
  1SB14                JUNCTION     10.83    10.83     0  00:12       0.184       0.184      -0.809
  1SB17_OF             JUNCTION      0.00  1196.97     0  01:04           0          71       0.089
  1SB19                JUNCTION     16.15    16.15     0  00:21       0.375       0.375       0.059
  1SB20                JUNCTION     10.91    10.91     0  00:21       0.252       0.252      -1.384
  1SB21                JUNCTION     10.99    10.99     0  00:15       0.194       0.194     -20.942
  1SB22                JUNCTION     10.60    10.60     0  00:15       0.224       0.224     -13.378
  1SB23                JUNCTION     20.14    20.14     0  00:15       0.419       0.419      -0.646
  1SB3_MIL             JUNCTION     19.60    19.60     0  00:10        1.41        1.41      -0.056
  1SB4                 JUNCTION      8.27     8.27     0  00:12       0.122       0.122      -0.420
  1SB5                 JUNCTION     15.42    15.42     0  00:15       0.286       0.286      -1.041
  1SB6_OF              JUNCTION      0.00  1135.53     0  00:38           0        63.3       2.003
  1SB7                 JUNCTION     12.37    12.37     0  00:12       0.245       0.245      -0.453
  1SB9                 JUNCTION     18.25    18.25     0  00:15       0.412       0.412      -0.050
  20SB1                JUNCTION     21.36    35.07     0  00:15       0.427       0.894      -0.218
  20SB6                JUNCTION     11.19    11.19     0  00:12       0.177       0.177      -0.984
  21SB1                JUNCTION     22.72    36.43     0  00:15       0.527       0.807      -0.436
  21SB6                JUNCTION     12.48    12.48     0  00:15       0.234       0.234      -0.031
  22SB1                JUNCTION     13.81    13.81     0  00:15        0.28        0.28      -0.180
  22SB6                JUNCTION     15.91    28.25     0  00:15       0.282       0.516      -0.057
  23SB1                JUNCTION     15.64    15.64     0  00:21       0.468       0.468       0.102
  23SB6                JUNCTION     20.96    49.12     0  00:15       0.371       0.887      -0.110
  24SB1                JUNCTION     14.04    14.04     0  00:12       0.196       0.196      -0.027
  24SB6                JUNCTION     25.79    53.56     0  00:15       0.493        1.02      -0.057
  25SB1                JUNCTION     23.29    23.29     0  00:21       0.585       0.585      -0.084
  25SB6                JUNCTION     19.74    27.90     0  00:15       0.391       0.528       0.043
  26SB1                JUNCTION     11.53    25.47     0  00:12       0.197       0.393       0.008
  26SB6                JUNCTION      8.40     8.40     0  00:12       0.137       0.137      -0.167
  27SB1                JUNCTION     13.97    39.27     0  00:12       0.245       0.638      -0.010
  28SB1                JUNCTION     20.81    58.24     0  00:15       0.507        1.14      -0.066
  29SB1                JUNCTION      0.00    80.31     0  00:15           0        1.73       0.023
  2SB1                 JUNCTION      5.27     5.27     0  00:30       0.217       0.217       0.082
  2SB11                JUNCTION     79.78   437.60     0  00:33         1.8          12       0.666
  2SB14                JUNCTION     32.21    42.67     0  00:15       0.705        0.89      -0.213
  2SB17                JUNCTION     21.06    57.21     0  00:20       0.509        1.21      -0.809
  2SB19                JUNCTION      3.36     3.36     0  00:30       0.113       0.113       0.032
  2SB20_OF             JUNCTION     18.61   928.50     0  01:02        0.33        57.1       4.286
  2SB21                JUNCTION      6.67    89.49     0  01:09       0.207        2.84      21.134
  2SB22                JUNCTION      5.37     9.79     0  01:28       0.196       0.357      25.583
  2SB23                JUNCTION     17.41    17.41     0  00:12       0.318       0.318      -0.908
  2SB2_MIL             JUNCTION      0.00  1472.28     0  00:29           0        31.4       0.155
  2SB3                 JUNCTION      8.37    53.06     0  00:14       0.132        1.95       0.282
  2SB4                 JUNCTION      5.08    13.20     0  00:12       0.084       0.207       0.343
  2SB5                 JUNCTION      8.67     8.67     0  00:15       0.185       0.185      -0.773
  2SB6                 JUNCTION      0.00   318.38     0  00:27           0        7.23       1.458
  2SB7                 JUNCTION      4.54     4.54     0  00:15      0.0815      0.0815      -0.671
  2SB9                 JUNCTION      0.00    51.22     0  00:15           0        1.28      -0.322
  30SB1                JUNCTION      0.00   112.83     0  00:18           0        2.63       0.155
  31SB1                JUNCTION     21.95    21.95     0  00:21       0.621       0.621       0.429
  32SB1                JUNCTION      9.30   109.53     0  00:35       0.235        2.56       0.423
  33SB1                JUNCTION     11.32   143.97     0  00:37       0.227        4.35      -2.491
  34SB1                JUNCTION     18.64    18.64     0  00:21       0.471       0.471       0.548
  35SB1                JUNCTION     14.94    14.94     0  00:15       0.293       0.293      -1.249
  36SB1                JUNCTION      0.00    44.32     0  00:15           0        1.11       0.684
  37SB1                JUNCTION      9.54    35.15     0  00:17       0.172       0.815       0.239
  38SB1                JUNCTION      7.22    27.08     0  00:21       0.185        0.64      -0.364
  39SB1                JUNCTION     20.07    20.07     0  00:15       0.455       0.455      -0.164
  3SB1                 JUNCTION     12.90    18.19     0  00:21       0.328       0.545      -0.024
  3SB14                JUNCTION     13.73    49.62     0  00:21        0.28        1.17       0.486
  3SB17                JUNCTION     16.24    38.29     0  00:15       0.345       0.706       0.819
  3SB19                JUNCTION      0.00    19.10     0  00:21           0       0.487       0.109
  3SB21                JUNCTION      5.45   121.05     0  01:03       0.159        4.44       4.738
  3SB22                JUNCTION      0.00    67.67     0  01:14           0        2.01      52.208
  3SB23                JUNCTION     16.80    47.44     0  00:15       0.306       0.844       0.410
  3SB3                 JUNCTION      9.67    26.28     0  00:13        0.13       0.405       0.422
  3SB5                 JUNCTION      0.00    25.56     0  00:50           0       0.487       1.195
  3SB6                 JUNCTION     10.81    21.72     0  00:15       0.213       0.461       0.644
  3SB7                 JUNCTION      4.54    22.35     0  00:13       0.093       0.421      -0.143
  3SB9                 JUNCTION     11.10    34.58     0  00:15        0.26       0.871       0.282
  40SB1                JUNCTION     32.25   320.22     0  00:30         0.7          17      -0.561
  41SB1                JUNCTION     12.56   466.56     0  00:37       0.455          22       0.371
  42SB1                JUNCTION      0.00   281.01     0  00:32           0        22.2       0.858
  43SB1                JUNCTION     13.39    13.39     0  00:15       0.252       0.252     -19.642
  44SB1                JUNCTION      9.73     9.73     0  00:21       0.275       0.275      -0.071
  45SB1                JUNCTION     11.51    21.70     0  00:17       0.247       0.523       0.106
  46SB1                JUNCTION     14.29    97.04     0  02:32        0.31        22.8       0.014
  47SB1                JUNCTION      0.00    97.11     0  02:31           0        22.8       0.086
  48SB1_OF             JUNCTION      0.00   839.61     0  00:45           0        32.6       0.236
  49SB1                JUNCTION     21.78    21.78     0  00:12       0.529       0.529       1.497
  4SB1                 JUNCTION     15.77    33.40     0  00:21       0.459           1      -0.054
  4SB11                JUNCTION     32.52   391.73     0  00:30       0.726        10.2      -0.289
  4SB14                JUNCTION     15.57    61.03     0  00:21        0.26        1.43      -0.094
  4SB17                JUNCTION     20.76    20.76     0  00:12       0.356       0.356      -1.383
  4SB19_OF             JUNCTION      7.47   810.11     0  01:03       0.108        52.7       0.021
  4SB21                JUNCTION      0.00   160.20     0  01:04           0        5.33      34.574
  4SB22_OF             JUNCTION      0.00  1012.15     0  00:53           0        62.4       2.462
  4SB23                JUNCTION      9.99     9.99     0  00:15       0.216       0.216      -0.402
  4SB3                 JUNCTION      7.81     7.81     0  00:15       0.145       0.145      -1.291
  4SB5_OF              JUNCTION     11.61   944.16     0  00:45        0.15        56.9       0.328
  4SB6                 JUNCTION     10.94    10.94     0  00:15       0.248       0.248      -0.178
  4SB7                 JUNCTION      0.00    23.77     0  00:15           0       0.422       0.742
  4SB9                 JUNCTION     24.19    24.19     0  00:12        0.61        0.61      -0.265
  50SB1                JUNCTION      0.00    20.28     0  00:21           0       0.521       0.984
  51SB1                JUNCTION      5.76     5.76     0  00:12      0.0714       0.072       0.793
  52SB1_OF             JUNCTION      0.00   843.98     0  00:43           0        32.4       0.128
  53SB1_OF             JUNCTION      0.00   869.03     0  00:42           0        30.1       0.038
  5SB1                 JUNCTION     30.55   115.52     0  00:30       0.696        10.8       0.014
  5SB11                JUNCTION     28.33   285.30     0  00:24       0.567        7.07       0.220
  5SB14                JUNCTION      4.48    20.48     0  00:21       0.131       0.488      -0.241
  5SB17                JUNCTION     18.47    18.47     0  00:15       0.407       0.407      -1.195
  5SB21_OF             JUNCTION      0.00   977.76     0  00:58           0        60.2       6.238
  5SB23                JUNCTION      0.00    58.81     0  00:21           0        1.26       0.338
  5SB3                 JUNCTION      7.58     7.58     0  00:12       0.126       0.126      -1.663
  5SB6                 JUNCTION     13.02   289.18     0  00:26       0.244        6.68      -1.133
  5SB7_OF              JUNCTION     17.39   974.09     0  00:58       0.263        61.6       3.549
  5SB9_OF              JUNCTION      0.00   832.62     0  01:03           0          54       0.066
  6SB1                 JUNCTION      9.41     9.41     0  00:21       0.273       0.273      -0.003
  6SB11                JUNCTION     21.44    98.42     0  00:26       0.605        2.41       0.130
  6SB14                JUNCTION     10.78    16.64     0  00:15       0.181       0.357      -0.024
  6SB17                JUNCTION     12.73    68.59     0  00:16       0.251        1.41       0.921
  6SB3                 JUNCTION      9.09     9.09     0  00:12       0.163       0.163      -2.307
  745                  JUNCTION      0.00   944.50     0  00:45           0        56.7       0.916
  747                  JUNCTION      0.00   799.50     0  01:02           0        52.1       0.005
  751                  JUNCTION      0.00   118.88     0  01:02           0        3.79      -0.569
  754                  JUNCTION      0.00    72.87     0  00:20           0         1.5       0.138
  756                  JUNCTION      0.00   198.03     0  00:25           0        4.45      -0.169
  757                  JUNCTION      0.00   159.03     0  00:16           0        3.15       0.731
  758                  JUNCTION      0.00   159.00     0  00:14           0        3.17       0.790
  7SB1                 JUNCTION     19.06   140.71     0  00:30       0.447        11.5       0.009
  7SB11                JUNCTION     16.05    83.50     0  00:23       0.284        1.82       0.462
  7SB14                JUNCTION      6.68     6.68     0  00:21       0.176       0.176       0.036
  7SB17                JUNCTION     16.37    16.37     0  00:15       0.353       0.353      -0.703
  7SB3                 JUNCTION      0.00    41.72     0  00:31           0        2.11       0.199
  7SB6                 JUNCTION      8.55    81.43     0  00:20       0.184        1.68      -0.225
  800                  JUNCTION      0.00  1103.44     0  01:04           0        66.8      -0.108
  802                  JUNCTION      0.00  1291.14     0  01:08           0        75.4       0.223
  818                  JUNCTION      0.00   849.43     0  00:42           0        30.1       0.079
  822                  JUNCTION      0.00   895.12     0  00:45           0        55.3       0.137
  824                  JUNCTION      0.00   892.73     0  00:46           0        55.2       0.311
  8SB1                 JUNCTION     13.55    13.55     0  00:15       0.404       0.404      -1.326
  8SB11                JUNCTION     14.41    68.67     0  00:20       0.186        1.54       0.331
  8SB14                JUNCTION      7.96     7.96     0  00:12       0.124       0.124       4.762
  8SB17                JUNCTION     17.35    17.35     0  00:15       0.393       0.393      -0.799
  8SB3_OF              JUNCTION      9.63   858.28     0  00:42       0.178        32.4       0.096
  8SB6                 JUNCTION     11.27   279.51     0  00:26       0.302        6.44       0.002
  9SB1                 JUNCTION     15.86   164.85     0  00:30       0.462        12.4       0.127
  9SB11                JUNCTION     10.70    50.42     0  00:14       0.244       0.949       0.309
  9SB14                JUNCTION     15.72    94.90     0  00:21         0.3        2.22       0.130
  9SB17                JUNCTION     11.41    11.41     0  00:12       0.235       0.235       1.201
  O.15_UP              JUNCTION      0.00  1294.69     0  01:08           0        75.2       0.277
  SB1018_OF            JUNCTION     73.25   840.29     0  01:03       0.952        54.9       0.041
  SB1216_OF            JUNCTION     42.67  1202.52     0  01:05       0.708        71.6       0.223
  O.O_RM               OUTFALL       0.00  1348.62     0  01:09           0        74.1       0.000
  1SB1                 STORAGE     634.04   634.04     0  00:15        9.42        9.42       0.017
  99                   STORAGE       0.00   465.78     0  00:27           0        4.71      -0.120
  
  
  **********************
  Node Surcharge Summary
  **********************
  
  No nodes were surcharged.
  
  
  *********************
  Node Flooding Summary
  *********************
  
  No nodes were flooded.
  
  
  **********************
  Storage Volume Summary
  **********************
  
  ------------------------------------------------------------------------------------------------
                         Average    Avg   Evap  Exfil     Maximum    Max    Time of Max    Maximum
                          Volume   Pcnt   Pcnt   Pcnt      Volume   Pcnt     Occurrence    Outflow
  Storage Unit          1000 ftł   Full   Loss   Loss    1000 ftł   Full    days hr:min        CFS
  ------------------------------------------------------------------------------------------------
  1SB1                   232.849    1.4    0.0    0.0     953.916    5.8       0  01:13      63.56
  99                     246.144   27.3    0.0    0.0     610.603   67.7       0  00:39      11.12
  
  
  ***********************
  Outfall Loading Summary
  ***********************
  
  -----------------------------------------------------------
                         Flow       Avg       Max       Total
                         Freq      Flow      Flow      Volume
  Outfall Node           Pcnt       CFS       CFS    10^6 gal
  -----------------------------------------------------------
  O.O_RM                97.34    151.03   1348.62      74.102
  -----------------------------------------------------------
  System                97.34    151.03   1348.62      74.102
  
  
  ********************
  Link Flow Summary
  ********************
  
  -----------------------------------------------------------------------------
                                 Maximum  Time of Max   Maximum    Max/    Max/
                                  |Flow|   Occurrence   |Veloc|    Full    Full
  Link                 Type          CFS  days hr:min    ft/sec    Flow   Depth
  -----------------------------------------------------------------------------
  583                  CHANNEL     12.33     0  00:17      3.34    0.00    0.06
  591                  CHANNEL      8.29     0  00:12      1.99    0.00    0.07
  592                  CHANNEL     27.80     0  00:15      3.73    0.00    0.09
  593                  CHANNEL     53.23     0  00:15      6.90    0.00    0.09
  594                  CHANNEL     47.93     0  00:16      3.49    0.00    0.13
  595                  CHANNEL     28.16     0  00:15      2.86    0.00    0.10
  596                  CHANNEL     12.45     0  00:15      3.14    0.00    0.06
  597                  CHANNEL     30.02     0  00:15      5.39    0.01    0.18
  598                  CHANNEL     33.27     0  00:20      4.26    0.01    0.18
  601                  CHANNEL     28.93     0  00:12      4.16    0.01    0.22
  602                  CHANNEL     72.87     0  00:20      5.81    0.00    0.12
  604                  CHANNEL    298.13     0  00:27     10.40    0.07    0.48
  606                  CHANNEL     11.42     0  00:17      2.45    0.00    0.07
  607                  CHANNEL     20.76     0  00:17      3.44    0.00    0.14
  608                  CHANNEL     23.81     0  00:15      3.65    0.00    0.10
  609                  CHANNEL     33.53     0  00:21      2.85    0.00    0.11
  610                  CONDUIT     51.06     0  00:17      5.28    0.05    0.57
  612                  CHANNEL     12.62     0  00:14      2.91    0.00    0.08
  613                  CHANNEL     23.77     0  00:15      2.99    0.00    0.17
  615                  CHANNEL      5.36     0  00:13      1.52    0.00    0.07
  616                  CHANNEL     15.92     0  00:21      3.06    0.00    0.07
  618                  CHANNEL      3.31     0  00:30      2.51    0.00    0.04
  619                  CHANNEL     10.85     0  00:21      4.51    0.00    0.09
  620                  CHANNEL     10.89     0  00:15      4.51    0.00    0.29
  622                  CHANNEL    120.86     0  01:04      3.46    0.00    0.44
  623                  CHANNEL     86.44     0  01:09      2.40    0.00    0.51
  624                  CHANNEL     10.44     0  00:16      4.09    0.00    0.20
  626                  CHANNEL      8.37     0  01:50      3.08    0.00    0.33
  627                  CHANNEL     19.85     0  00:16      4.86    0.00    0.09
  628                  CHANNEL     58.55     0  00:22      6.03    0.00    0.15
  629                  CHANNEL     19.89     0  00:16      2.47    0.00    0.11
  630                  CHANNEL     39.26     0  00:22      2.73    0.00    0.12
  631                  CHANNEL     11.82     0  00:18      1.83    0.00    0.10
  632                  CHANNEL     15.85     0  00:15      4.10    0.00    0.08
  633                  CHANNEL     23.10     0  00:18      3.84    0.00    0.17
  634                  CHANNEL      8.59     0  00:16      3.60    0.00    0.08
  712                  CHANNEL    807.98     0  01:03      7.50    0.02    0.24
  713                  CHANNEL    832.12     0  01:04      6.35    0.02    0.22
  714                  CHANNEL    837.49     0  01:05      4.12    0.02    0.26
  748                  CHANNEL    799.78     0  01:03      5.38    0.03    0.28
  750                  CHANNEL     64.33     0  01:14      2.33    0.00    0.43
  753                  CHANNEL    114.50     0  01:02      2.09    0.00    0.20
  762                  CHANNEL     12.23     0  00:08      2.38    0.00    0.08
  635                  CHANNEL      8.14     0  00:12      3.10    0.00    0.07
  636                  CHANNEL     12.66     0  00:15      2.41    0.00    0.07
  637                  CHANNEL      8.92     0  00:12      2.74    0.00    0.14
  641                  CHANNEL      8.64     0  00:14      2.15    0.00    0.08
  642                  CHANNEL     25.89     0  00:14      2.36    0.00    0.18
  643                  CHANNEL      8.65     0  00:14      2.09    0.00    0.08
  644                  CONDUIT     63.56     0  01:13      9.46    1.09    1.00
  647                  CHANNEL    183.40     0  00:28      2.73    0.01    0.21
  650                  CHANNEL    319.77     0  00:32      2.08    0.04    0.26
  655                  CONDUIT      5.65     0  00:30      2.41    0.11    0.31
  656                  CONDUIT     17.71     0  00:21      4.44    0.38    0.43
  657                  CONDUIT     33.28     0  00:21      6.86    0.40    0.58
  658                  CHANNEL     14.09     0  00:21      2.35    0.00    0.09
  659                  CHANNEL     77.27     0  00:24      2.55    0.00    0.16
  660                  CHANNEL    216.37     0  00:24      3.79    0.01    0.21
  662                  CHANNEL     13.74     0  00:15      3.52    0.00    0.08
  663                  CHANNEL     36.31     0  00:18      3.67    0.00    0.10
  664                  CHANNEL     51.44     0  00:22      4.51    0.00    0.11
  665                  CHANNEL     15.48     0  00:21      3.16    0.00    0.07
  666                  CHANNEL     34.80     0  00:21      4.52    0.00    0.13
  667                  CHANNEL     13.96     0  00:12      4.78    0.00    0.06
  668                  CHANNEL     25.36     0  00:12      4.39    0.00    0.08
  669                  CHANNEL     39.02     0  00:12      4.35    0.00    0.10
  670                  CHANNEL     58.17     0  00:15      5.86    0.00    0.11
  671                  CHANNEL     78.22     0  00:17      4.44    0.00    0.15
  672                  CHANNEL    112.64     0  00:20      4.36    0.00    0.16
  673                  CHANNEL    132.65     0  00:21      4.67    0.00    0.18
  674                  CHANNEL     23.17     0  00:21      4.27    0.00    0.10
  675                  CHANNEL     14.14     0  00:19      2.39    0.00    0.11
  676                  CONDUIT      8.73     0  00:30      3.13    0.00    0.09
  677                  CHANNEL     14.07     0  00:13      1.81    0.00    0.15
  678                  CHANNEL     17.14     0  00:18      3.19    0.00    0.15
  679                  CHANNEL     21.72     0  00:22      3.73    0.00    0.14
  680                  CHANNEL     20.11     0  00:16      3.57    0.00    0.08
  681                  CHANNEL     26.84     0  00:21      3.33    0.00    0.13
  682                  CHANNEL     29.96     0  00:18      2.34    0.00    0.24
  684                  CHANNEL    141.03     0  00:39      1.19    0.06    0.73
  685                  CHANNEL     17.33     0  00:15      3.06    0.00    0.21
  686                  CHANNEL    102.04     0  00:37      3.27    0.01    0.16
  687                  CHANNEL     18.43     0  00:21      4.60    0.00    0.06
  688                  CHANNEL      0.00     0  00:00      0.00    0.00    0.00
  690                  CHANNEL      0.00     0  00:00      0.00    0.00    0.03
  694                  CHANNEL     13.28     0  00:15      4.97    0.00    0.23
  695                  CHANNEL     10.85     0  00:21      2.04    0.00    0.08
  696                  CHANNEL     20.05     0  00:22      2.92    0.00    0.09
  702                  CHANNEL    813.91     0  00:42      4.35    0.11    0.42
  703                  CHANNEL    842.55     0  00:43      4.53    0.09    0.42
  704                  CHANNEL    834.66     0  00:45      5.28    0.11    0.38
  705                  CHANNEL    892.73     0  00:46      5.13    0.08    0.32
  825                  CHANNEL    893.49     0  00:45      7.33    0.04    0.32
  826                  CHANNEL    102.24     0  00:35      3.71    0.00    0.16
  536                  CHANNEL     22.27     0  00:21      2.15    0.00    0.12
  537                  CHANNEL     48.94     0  00:30      2.48    0.00    0.14
  543                  CHANNEL     17.23     0  00:15      3.47    0.00    0.12
  544                  CHANNEL     11.12     0  00:15      3.03    0.00    0.07
  548                  CHANNEL     18.25     0  00:14      2.96    0.00    0.12
  549                  CHANNEL      8.12     0  00:21      2.82    0.00    0.07
  551                  CHANNEL     22.12     0  00:15      2.54    0.00    0.10
  552                  CHANNEL     36.27     0  00:19      3.79    0.00    0.10
  557                  CHANNEL     10.65     0  00:13      1.91    0.00    0.10
  558                  CHANNEL     37.31     0  00:22      2.46    0.00    0.13
  559                  CHANNEL     48.66     0  00:23      4.92    0.00    0.10
  560                  CHANNEL     60.68     0  00:22      5.27    0.00    0.11
  561                  CHANNEL     92.65     0  00:23      6.42    0.00    0.12
  563                  CHANNEL      6.85     0  00:18      3.62    0.00    0.05
  564                  CHANNEL      6.63     0  00:21      2.82    0.00    0.05
  565                  CHANNEL     16.55     0  00:15      3.39    0.00    0.07
  566                  CHANNEL     21.00     0  00:16      2.35    0.00    0.10
  571                  CHANNEL     19.10     0  00:15      2.80    0.00    0.09
  572                  CHANNEL     39.87     0  00:15      3.06    0.00    0.13
  573                  CHANNEL     41.20     0  00:22      2.58    0.00    0.13
  582                  CHANNEL     17.54     0  00:21      5.58    0.00    0.07
  717                  CHANNEL   1200.80     0  01:06      4.37    0.23    0.50
  801                  CHANNEL   1103.40     0  01:05      7.31    0.08    0.34
  0.06_NAT             CHANNEL   1348.62     0  01:09      0.74    0.03    0.35
  1087                 CHANNEL    118.22     0  01:04      6.20    0.00    0.21
  1051                 CHANNEL    437.18     0  00:37      1.96    0.01    0.29
  817pipe              CONDUIT     35.45     0  00:08      7.27    1.09    1.00
  817chan              CHANNEL    414.02     0  00:08      9.32    0.01    0.11
  816pipe              CONDUIT     23.35     0  00:08      7.43    1.10    1.00
  816chan              CHANNEL    110.98     0  00:09      5.35    0.00    0.08
  815pipe1             CONDUIT     13.10     0  00:07      4.17    1.06    1.00
  815chan              CHANNEL    113.69     0  00:11      3.42    0.00    0.10
  815pipe2             CONDUIT     14.09     0  00:07      4.48    1.06    1.00
  814pipe              CONDUIT     22.31     0  00:07      7.10    2.34    1.00
  814chan              CHANNEL    148.83     0  00:14      3.19    0.01    0.12
  810pipe1             CONDUIT     97.92     0  00:44      7.79    1.62    1.00
  810chan              CHANNEL     94.04     0  00:27      3.28    0.00    0.09
  810pipe2             CONDUIT     41.65     0  00:44      5.89    1.58    1.00
  789pipe              CONDUIT    271.94     0  00:27     21.64    1.35    1.00
  789of                CONDUIT      8.01     0  00:26      3.33    0.01    0.12
  803pipe              CONDUIT     66.14     0  00:15      9.36    1.93    1.00
  803chan              CHANNEL     36.94     0  00:25      3.46    0.00    0.11
  805pipe1             CONDUIT     86.45     0  00:30     13.08    1.07    1.00
  805pipe2             CONDUIT    210.52     0  00:22     14.43    1.08    1.00
  805of                CONDUIT      1.04     0  00:59      0.09    0.00    0.28
  830pipe              CONDUIT     11.39     0  00:15     10.73    1.08    1.00
  830of                CONDUIT      6.81     0  00:15      7.37    0.00    0.03
  831pipe              CONDUIT     13.28     0  00:14     11.82    1.06    1.00
  831of                CONDUIT      0.00     0  00:00      0.00    0.00    0.66
  827pipe              CONDUIT     19.10     0  00:21     11.47    0.54    1.00
  827of                CONDUIT      0.00     0  00:00      0.00    0.00    0.20
  826pipe              CONDUIT     18.79     0  00:18      8.81    1.08    1.00
  826of                CONDUIT     36.26     0  01:03      3.31    0.02    0.28
  825pipe              CONDUIT      5.60     0  00:17      6.13    0.49    1.00
  825of                CONDUIT      3.19     0  01:02      0.75    0.00    0.13
  51OVRFLW             CHANNEL      0.00     0  00:00      0.00    0.00    0.00
  51_7x10_1            CONDUIT    472.25     0  00:45     10.97    1.25    1.00
  51_7x10_2            CONDUIT    472.25     0  00:45     10.97    1.25    1.00
  707_modify           CHANNEL   1012.15     0  00:53     25.70    0.01    0.36
  708_modify           CHANNEL    961.53     0  00:58      3.32    0.01    0.38
  709_modify           CHANNEL    977.76     0  00:58      5.39    0.01    0.42
  710_modify           CHANNEL    923.87     0  01:02      2.00    0.01    0.46
  47PIPE               CONDUIT      4.72     0  00:44      6.02    3.56    1.00
  47OVRFLW             CHANNEL    795.20     0  01:02      3.03    0.03    0.09
  746_modify           CHANNEL    887.16     0  00:43      2.93    0.01    0.33
  804pipe              CONDUIT     34.05     0  00:11      6.94    1.83    1.00
  804chan              CHANNEL     59.52     0  00:22      3.36    0.00    0.15
  813pipe              CONDUIT     40.56     0  00:09      8.26    2.34    1.00
  813chan              CHANNEL    139.91     0  00:16      3.24    0.01    0.11
  812pipe              CONDUIT     48.34     0  01:12      6.84    1.72    1.00
  812chan              CHANNEL    126.00     0  00:20      3.10    0.01    0.11
  811pipe              CONDUIT     75.15     0  01:00      7.81    1.77    1.00
  811chan              CHANNEL    120.71     0  00:25      3.12    0.01    0.10
  838of                CHANNEL     24.02     0  00:39      4.12    0.00    0.10
  838pip               CONDUIT     25.25     0  00:19      8.04    1.45    1.00
  839chan              CHANNEL     11.16     0  00:36      0.65    0.00    0.15
  839pipe              CONDUIT     16.61     0  00:06      5.91    0.95    1.00
  838chan              CHANNEL     18.42     0  00:35      4.02    0.00    0.07
  838pipe              CONDUIT     21.04     0  02:38      6.70    1.21    1.00
  36inch_1             CONDUIT     40.80     0  00:22      6.13    1.02    1.00
  54inch_1             CONDUIT     79.96     0  00:30      7.03    0.68    0.67
  36inch_2             CONDUIT     44.24     0  00:31      6.40    1.20    0.96
  54inch_2             CONDUIT     94.06     0  00:30      8.85    0.87    0.64
  848pipe              CONDUIT     74.46     0  01:08      7.74    1.56    1.00
  848chan              CONDUIT     18.87     0  00:36      3.95    0.02    0.15
  849_1                CONDUIT    147.94     0  00:31      8.46    1.59    0.83
  849_2                CONDUIT    147.94     0  00:31      8.46    1.59    0.83
  849_trap             CONDUIT      0.89     0  00:31      1.15    0.00    0.03
  853pipe              CONDUIT     11.82     0  00:08      2.31    1.20    1.00
  853of                CHANNEL     11.29     0  00:21      0.78    0.01    0.16
  854of                CHANNEL     22.29     0  00:27      1.76    0.01    0.18
  861_1                CONDUIT    106.09     0  00:27      8.44    2.79    1.00
  861_2                CONDUIT    106.09     0  00:27      8.44    2.79    1.00
  861_trap             CONDUIT      9.56     0  00:30      3.21    0.01    0.10
  883culv              CONDUIT     19.57     0  00:49      6.23    1.18    1.00
  883of                CHANNEL      2.40     0  00:58      1.42    0.00    0.12
  889pipe              CONDUIT      5.73     0  00:12      6.92    0.74    1.00
  889chan              CHANNEL      0.00     0  00:00      0.00    0.00    0.14
  691pipe              CONDUIT     97.28     0  02:29      5.57    0.84    1.00
  691chan              CHANNEL     11.94     0  00:48      1.58    0.00    0.09
  892pipe              CONDUIT     95.98     0  03:01      7.64    1.50    1.00
  892chan              CHANNEL      0.00     0  00:00      0.00    0.00    0.00
  893pipe              CONDUIT     97.11     0  02:31      6.09    0.84    1.00
  893chan              CHANNEL      0.00     0  00:00      0.00    0.00    0.03
  55_OVRFLW            CHANNEL      0.00     0  00:00      0.00    0.00    0.02
  55_5x12_1            CONDUIT    424.72     0  00:42      7.08    0.85    1.00
  55_5x12_2            CONDUIT    424.72     0  00:42      7.08    0.85    1.00
  53_#7TRP             CONDUIT    839.07     0  00:45      3.12    0.33    0.35
  708pipe              CONDUIT     48.41     0  00:14      6.85    1.37    1.00
  708chan              CHANNEL     40.88     0  00:38      1.65    0.00    0.09
  706pipe              CONDUIT     60.40     0  01:10      6.28    1.39    1.00
  706chan              CHANNEL     19.50     0  00:45      1.67    0.00    0.06
  704pipe              CONDUIT     75.44     0  00:47      7.84    1.47    1.00
  704chan              CHANNEL      0.00     0  00:00      0.00    0.00    0.00
  702pipe              CONDUIT     82.16     0  00:47      8.54    1.60    1.00
[...]
  572                     1.00   0.00  0.00  0.00  1.00  0.00  0.00  0.00  0.93  0.00
  573                     1.00   0.00  0.00  0.00  0.00  0.00  0.00  1.00  0.00  0.00
  582                     1.00   0.00  0.00  0.00  0.04  0.01  0.00  0.96  0.04  0.00
  717                     1.00   0.00  0.00  0.00  1.00  0.00  0.00  0.00  0.00  0.00
  801                     1.00   0.00  0.00  0.00  1.00  0.00  0.00  0.00  0.00  0.00
  0.06_NAT                1.00   0.00  0.00  0.00  1.00  0.00  0.00  0.00  0.00  0.00
  1087                    1.00   0.00  0.00  0.00  0.98  0.02  0.00  0.00  0.08  0.00
  1051                    1.00   0.00  0.00  0.00  1.00  0.00  0.00  0.00  0.00  0.00
  817pipe                 1.00   0.00  0.00  0.00  0.93  0.07  0.00  0.00  0.21  0.00
  817chan                 1.00   0.95  0.01  0.00  0.02  0.01  0.00  0.00  0.99  0.00
  816pipe                 1.00   0.00  0.00  0.00  0.75  0.25  0.00  0.00  0.19  0.00
  816chan                 1.00   0.95  0.00  0.00  0.04  0.01  0.00  0.00  0.99  0.00
  815pipe1                1.00   0.00  0.00  0.00  1.00  0.00  0.00  0.00  0.41  0.00
  815chan                 1.00   0.94  0.01  0.00  0.05  0.00  0.00  0.00  0.96  0.00
  815pipe2                1.00   0.00  0.00  0.00  1.00  0.00  0.00  0.00  0.84  0.00
  814pipe                 1.00   0.00  0.00  0.00  1.00  0.00  0.00  0.00  0.00  0.00
  814chan                 1.00   0.94  0.00  0.00  0.04  0.00  0.00  0.01  0.00  0.00
  810pipe1                1.00   0.00  0.00  0.00  1.00  0.00  0.00  0.00  0.00  0.00
  810chan                 1.00   0.98  0.00  0.00  0.00  0.00  0.00  0.02  0.00  0.00
  810pipe2                1.00   0.00  0.00  0.00  1.00  0.00  0.00  0.00  0.00  0.00
  789pipe                 1.00   0.00  0.00  0.00  0.98  0.02  0.00  0.00  0.98  0.00
  789of                   1.00   0.99  0.00  0.00  0.00  0.00  0.00  0.01  0.00  0.00
  803pipe                 1.00   0.00  0.00  0.00  1.00  0.00  0.00  0.00  0.04  0.00
  803chan                 1.00   0.98  0.00  0.00  0.00  0.00  0.00  0.02  0.00  0.00
  805pipe1                1.00   0.00  0.01  0.00  0.98  0.01  0.00  0.00  0.01  0.00
  805pipe2                1.00   0.00  0.00  0.00  0.97  0.00  0.00  0.02  0.00  0.00
  805of                   1.00   0.03  0.96  0.00  0.01  0.00  0.00  0.00  0.96  0.00
  830pipe                 1.00   0.00  0.73  0.00  0.05  0.23  0.00  0.00  0.78  0.00
  830of                   1.00   0.98  0.00  0.00  0.00  0.00  0.00  0.02  0.00  0.00
  831pipe                 1.00   0.00  0.00  0.00  0.99  0.00  0.00  0.00  0.93  0.00
  831of                   1.00   0.02  0.98  0.00  0.00  0.00  0.00  0.00  0.00  0.00
  827pipe                 1.00   0.00  0.00  0.00  0.48  0.00  0.00  0.52  0.48  0.00
  827of                   1.00   0.95  0.05  0.00  0.00  0.00  0.00  0.00  0.00  0.00
  826pipe                 1.00   0.00  0.00  0.00  0.99  0.01  0.00  0.00  0.00  0.00
  826of                   1.00   0.03  0.80  0.00  0.10  0.00  0.07  0.00  0.89  0.00
  825pipe                 1.00   0.00  0.00  0.00  0.99  0.01  0.00  0.00  0.01  0.00
  825of                   1.00   0.83  0.15  0.00  0.00  0.00  0.02  0.00  0.00  0.00
  51OVRFLW                1.00   1.00  0.00  0.00  0.00  0.00  0.00  0.00  0.00  0.00
  51_7x10_1               1.00   0.00  0.00  0.00  1.00  0.00  0.00  0.00  0.00  0.00
  51_7x10_2               1.00   0.00  0.00  0.00  1.00  0.00  0.00  0.00  0.00  0.00
  707_modify              1.00   0.00  0.00  0.00  1.00  0.00  0.00  0.00  0.00  0.00
  708_modify              1.00   0.00  0.00  0.00  1.00  0.00  0.00  0.00  0.00  0.00
  709_modify              1.00   0.00  0.00  0.00  1.00  0.00  0.00  0.00  0.00  0.00
  710_modify              1.00   0.00  0.00  0.00  1.00  0.00  0.00  0.00  0.01  0.00
  47PIPE                  1.00   0.00  0.00  0.00  1.00  0.00  0.00  0.00  0.00  0.00
  47OVRFLW                1.00   0.03  0.00  0.00  0.00  0.00  0.00  0.97  0.00  0.00
  746_modify              1.00   0.00  0.00  0.00  1.00  0.00  0.00  0.00  0.00  0.00
  804pipe                 1.00   0.00  0.00  0.00  1.00  0.00  0.00  0.00  0.00  0.00
  804chan                 1.00   0.97  0.00  0.00  0.02  0.00  0.00  0.01  0.00  0.00
  813pipe                 1.00   0.00  0.00  0.00  1.00  0.00  0.00  0.00  0.00  0.00
  813chan                 1.00   0.95  0.00  0.00  0.04  0.00  0.00  0.01  0.00  0.00
  812pipe                 1.00   0.00  0.00  0.00  1.00  0.00  0.00  0.00  0.25  0.00
  812chan                 1.00   0.96  0.00  0.00  0.03  0.00  0.00  0.02  0.00  0.00
  811pipe                 1.00   0.00  0.00  0.00  1.00  0.00  0.00  0.00  0.00  0.00
  811chan                 1.00   0.96  0.00  0.00  0.01  0.00  0.00  0.03  0.00  0.00
  838of                   1.00   0.93  0.00  0.00  0.02  0.00  0.00  0.05  0.02  0.00
  838pip                  1.00   0.00  0.00  0.00  0.91  0.00  0.00  0.09  0.81  0.00
  839chan                 1.00   0.88  0.00  0.00  0.11  0.00  0.00  0.00  0.99  0.00
  839pipe                 1.00   0.00  0.84  0.00  0.16  0.00  0.00  0.00  0.88  0.00
  838chan                 1.00   0.90  0.00  0.00  0.03  0.01  0.00  0.07  0.04  0.00
  838pipe                 1.00   0.00  0.00  0.00  1.00  0.00  0.00  0.00  0.08  0.00
  36inch_1                1.00   0.00  0.00  0.00  1.00  0.00  0.00  0.00  0.00  0.00
  54inch_1                1.00   0.00  0.00  0.00  0.94  0.06  0.00  0.00  0.30  0.00
  36inch_2                1.00   0.00  0.00  0.00  0.99  0.01  0.00  0.00  0.74  0.00
  54inch_2                1.00   0.00  0.00  0.00  0.97  0.03  0.00  0.00  0.82  0.00
  848pipe                 1.00   0.00  0.00  0.00  0.64  0.35  0.00  0.00  0.00  0.00
  848chan                 1.00   0.95  0.00  0.00  0.00  0.00  0.00  0.05  0.00  0.00
  849_1                   1.00   0.00  0.00  0.00  1.00  0.00  0.00  0.00  0.03  0.00
  849_2                   1.00   0.00  0.00  0.00  1.00  0.00  0.00  0.00  0.03  0.00
  849_trap                1.00   0.99  0.00  0.00  0.00  0.00  0.00  0.01  0.00  0.00
  853pipe                 1.00   0.00  0.00  0.00  1.00  0.00  0.00  0.00  0.00  0.00
  853of                   1.00   0.00  0.78  0.00  0.22  0.00  0.00  0.00  0.00  0.00
  854of                   1.00   0.00  0.00  0.00  0.03  0.00  0.00  0.96  0.00  0.00
  861_1                   1.00   0.00  0.00  0.00  1.00  0.00  0.00  0.00  0.00  0.00
  861_2                   1.00   0.00  0.00  0.00  1.00  0.00  0.00  0.00  0.00  0.00
  861_trap                1.00   0.98  0.00  0.00  0.00  0.00  0.00  0.02  0.00  0.00
  883culv                 1.00   0.00  0.00  0.00  1.00  0.00  0.00  0.00  0.91  0.00
  883of                   1.00   0.81  0.13  0.00  0.02  0.00  0.00  0.05  0.93  0.00
  889pipe                 1.00   0.00  0.82  0.00  0.17  0.00  0.00  0.01  0.94  0.00
  889chan                 1.00   0.93  0.07  0.00  0.00  0.00  0.00  0.00  0.00  0.00
  691pipe                 1.00   0.00  0.00  0.00  1.00  0.00  0.00  0.00  0.00  0.00
  691chan                 1.00   0.95  0.02  0.00  0.04  0.00  0.00  0.00  0.95  0.00
  892pipe                 1.00   0.00  0.00  0.00  1.00  0.00  0.00  0.00  0.23  0.00
  892chan                 1.00   1.00  0.00  0.00  0.00  0.00  0.00  0.00  0.00  0.00
  893pipe                 1.00   0.00  0.00  0.00  1.00  0.00  0.00  0.00  0.00  0.00
  893chan                 1.00   0.96  0.04  0.00  0.00  0.00  0.00  0.00  0.00  0.00
  55_OVRFLW               1.00   0.99  0.01  0.00  0.00  0.00  0.00  0.00  0.00  0.00
  55_5x12_1               1.00   0.00  0.00  0.00  1.00  0.00  0.00  0.00  0.00  0.00
  55_5x12_2               1.00   0.00  0.00  0.00  1.00  0.00  0.00  0.00  0.00  0.00
  53_#7TRP                1.00   0.00  0.00  0.00  1.00  0.00  0.00  0.00  0.00  0.00
  708pipe                 1.00   0.00  0.00  0.00  0.05  0.00  0.00  0.95  0.00  0.00
  708chan                 1.00   0.96  0.00  0.00  0.02  0.00  0.00  0.02  0.00  0.00
  706pipe                 1.00   0.00  0.00  0.00  0.05  0.00  0.00  0.95  0.00  0.00
  706chan                 1.00   0.97  0.00  0.00  0.00  0.00  0.00  0.03  0.00  0.00
  704pipe                 1.00   0.00  0.00  0.00  1.00  0.00  0.00  0.00  0.02  0.00
  704chan                 1.00   1.00  0.00  0.00  0.00  0.00  0.00  0.00  0.00  0.00
  702pipe                 1.00   0.00  0.00  0.00  0.99  0.00  0.00  0.01  0.90  0.00
  702chan                 1.00   1.00  0.00  0.00  0.00  0.00  0.00  0.00  0.00  0.00
  700pipe                 1.00   0.00  0.00  0.00  1.00  0.00  0.00  0.00  0.00  0.00
  700chan                 1.00   1.00  0.00  0.00  0.00  0.00  0.00  0.00  0.00  0.00
  707pipe                 1.00   0.00  0.00  0.00  0.05  0.00  0.00  0.95  0.00  0.00
  707chan                 1.00   0.96  0.00  0.00  0.03  0.00  0.00  0.01  0.98  0.00
  705pipe                 1.00   0.00  0.00  0.00  0.05  0.00  0.00  0.95  0.00  0.00
  705chan                 1.00   1.00  0.00  0.00  0.00  0.00  0.00  0.00  0.00  0.00
  750p                    1.00   0.00  0.00  0.00  0.04  0.00  0.00  0.96  0.00  0.00
  750c                    1.00   0.96  0.00  0.00  0.00  0.00  0.00  0.04  0.00  0.00
  701pipe                 1.00   0.00  0.00  0.00  0.01  0.00  0.00  0.99  0.00  0.00
  701chan                 1.00   0.95  0.00  0.00  0.00  0.00  0.00  0.05  0.00  0.00
  740pipe                 1.00   0.00  0.00  0.00  0.99  0.01  0.00  0.00  0.94  0.00
  740chan                 1.00   0.96  0.00  0.00  0.00  0.00  0.00  0.04  0.00  0.00
  768pipe                 1.00   0.00  0.00  0.00  0.48  0.00  0.00  0.52  0.43  0.00
  768chan                 1.00   0.95  0.00  0.00  0.00  0.00  0.00  0.05  0.00  0.00
  770pipe                 1.00   0.00  0.00  0.00  0.06  0.00  0.00  0.94  0.00  0.00
  770chan                 1.00   0.95  0.00  0.00  0.03  0.00  0.00  0.02  0.00  0.00
  769pipe                 1.00   0.00  0.00  0.00  0.96  0.04  0.00  0.00  0.02  0.00
  769chan                 1.00   0.95  0.00  0.00  0.00  0.00  0.00  0.05  0.00  0.00
  782pipe                 1.00   0.00  0.00  0.00  0.04  0.00  0.00  0.96  0.00  0.00
  782chan                 1.00   0.95  0.00  0.00  0.03  0.00  0.00  0.02  0.00  0.00
  781pipe                 1.00   0.00  0.00  0.00  0.99  0.01  0.00  0.00  0.95  0.00
  781chan                 1.00   0.96  0.00  0.00  0.00  0.00  0.00  0.04  0.00  0.00
  780pipe                 1.00   0.00  0.00  0.00  0.05  0.00  0.00  0.95  0.00  0.00
  780chan                 1.00   0.95  0.02  0.00  0.03  0.00  0.00  0.00  0.99  0.00
  775pipe                 1.00   0.00  0.00  0.00  1.00  0.00  0.00  0.00  0.02  0.00
  775chan                 1.00   0.95  0.00  0.00  0.04  0.00  0.00  0.00  0.96  0.00
  774pipe                 1.00   0.63  0.00  0.00  0.37  0.00  0.00  0.00  0.64  0.00
  774chan                 1.00   0.95  0.01  0.00  0.04  0.00  0.00  0.00  0.99  0.00
  773pipe                 1.00   0.00  0.63  0.00  0.37  0.00  0.00  0.00  0.66  0.00
  773chan                 1.00   0.95  0.00  0.00  0.04  0.00  0.00  0.01  0.94  0.00
  772pipe                 1.00   0.00  0.00  0.00  0.06  0.00  0.00  0.94  0.00  0.00
  772chan                 1.00   0.95  0.00  0.00  0.04  0.00  0.00  0.01  0.00  0.00
  771pipe                 1.00   0.00  0.59  0.00  0.41  0.00  0.00  0.00  0.85  0.00
  771chan                 1.00   0.95  0.01  0.00  0.05  0.00  0.00  0.00  0.98  0.00
  DEANPIPE1               1.00   0.00  0.00  0.00  1.00  0.00  0.00  0.00  0.08  0.00
  DEANPIPE2               1.00   0.00  0.00  0.00  1.00  0.00  0.00  0.00  0.08  0.00
  DEANOVER                1.00   1.00  0.00  0.00  0.00  0.00  0.00  0.00  0.00  0.00
  TEUT_OVF                1.00   1.00  0.00  0.00  0.00  0.00  0.00  0.00  0.00  0.00
  TEUTPIPE1               1.00   0.00  0.00  0.00  1.00  0.00  0.00  0.00  0.00  0.00
  GBPIPE                  1.00   0.00  0.00  0.00  1.00  0.00  0.00  0.00  0.00  0.00
  GB_OVER                 1.00   1.00  0.00  0.00  0.00  0.00  0.00  0.00  0.00  0.00
  .21NAT                  1.00   0.00  0.00  0.00  1.00  0.00  0.00  0.00  0.00  0.00
  DEERWPIPE               1.00   0.00  0.00  0.00  1.00  0.00  0.00  0.00  0.00  0.00
  DEER_OVR                1.00   1.00  0.00  0.00  0.00  0.00  0.00  0.00  0.00  0.00
  .13_NAT                 1.00   0.00  0.00  0.00  1.00  0.00  0.00  0.00  0.00  0.00
  PATH_PIPE               1.00   0.00  0.00  0.00  1.00  0.00  0.00  0.00  0.00  0.00
  PATH_OV                 1.00   0.01  0.00  0.00  0.99  0.00  0.00  0.00  0.00  0.00
  BradleyIn               1.00   0.00  0.52  0.00  0.06  0.02  0.40  0.00  0.01  0.00
  Brad_Out                1.00   0.00  0.00  0.00  0.70  0.29  0.00  0.00  0.06  0.00
  BradBox                 1.00   0.00  0.59  0.00  0.39  0.02  0.00  0.00  0.98  0.00
  BradBoxOv               1.00   1.00  0.00  0.00  0.00  0.00  0.00  0.00  0.00  0.00
  s_config2               1.00   0.00  0.00  0.00  1.00  0.00  0.00  0.00  0.00  0.00
  LIB_1                   1.00   0.00  0.00  0.00  0.99  0.01  0.00  0.00  0.92  0.00
  LIB_2                   1.00   0.00  0.00  0.00  1.00  0.00  0.00  0.00  0.00  0.00
  LIB_3                   1.00   0.00  0.00  0.00  1.00  0.00  0.00  0.00  0.00  0.00
  LIB_4                   1.00   0.00  0.00  0.00  1.00  0.00  0.00  0.00  0.00  0.00
  LIB_5                   1.00   0.00  0.00  0.00  1.00  0.00  0.00  0.00  0.00  0.00
  LIB_6                   1.00   0.00  0.00  0.00  1.00  0.00  0.00  0.00  0.00  0.00
  LIB_7                   1.00   0.00  0.00  0.00  1.00  0.00  0.00  0.00  0.00  0.00
  LIB_8                   1.00   0.00  0.00  0.00  1.00  0.00  0.00  0.00  0.00  0.00
  LIB_9                   1.00   0.00  0.00  0.00  0.99  0.00  0.00  0.00  0.00  0.00
  LIB_10                  1.00   0.01  0.00  0.00  0.99  0.00  0.00  0.00  0.00  0.00
  LIB_12                  1.00   0.01  0.00  0.00  0.99  0.00  0.00  0.00  0.00  0.00
  
  
  *************************
  Conduit Surcharge Summary
  *************************
  
  ----------------------------------------------------------------------------
                                                           Hours        Hours 
                         --------- Hours Full --------   Above Full   Capacity
  Conduit                Both Ends  Upstream  Dnstream   Normal Flow   Limited
  ----------------------------------------------------------------------------
  644                         0.01      2.23      0.01      3.00         1.45
  817pipe                     1.00      1.00      1.20      0.84         0.84
  816pipe                     1.23      1.23      1.44      1.11         1.11
  815pipe1                    1.44      1.44      1.55      0.07         0.04
  815pipe2                    1.44      1.44      1.55      0.07         0.04
  814pipe                     1.43      1.55      1.43      1.61         1.51
  810pipe1                    0.56      0.61      0.56      0.78         0.58
  810pipe2                    0.59      0.85      0.59      1.02         0.71
  789pipe                     0.56      0.56      0.98      0.44         0.40
  803pipe                     0.59      0.68      0.59      0.76         0.65
  805pipe1                    0.54      0.54     23.45      0.11         0.01
  805pipe2                    0.49      0.54     23.35      0.27         0.01
  830pipe                     0.01      0.68      0.01      0.59         0.58
  831pipe                     1.43      1.49     23.74      0.25         0.23
  827pipe                     0.01      0.01      1.80      0.01         0.01
  826pipe                    23.64     23.73     23.64      0.10         0.06
  825pipe                    23.09     23.09     23.71      0.01         0.01
  51_7x10_1                   0.66      0.67      0.80      0.55         0.22
  51_7x10_2                   0.66      0.67      0.80      0.55         0.22
  47PIPE                     11.26     23.85     11.26     23.83        23.71
  804pipe                     0.76      0.94      0.76      0.60         0.47
  813pipe                     1.22      1.34      1.22      1.43         1.28
  812pipe                     1.13      1.18      1.13      0.79         0.68
  811pipe                     0.70      1.07      0.70      1.15         0.97
  838pip                      1.94      2.80      1.94      2.33         2.25
  839pipe                     2.69      2.69      2.79      0.01         0.01
  838pipe                     2.79      2.79      2.80      2.56         1.91
  36inch_1                    0.01      0.01      0.49      0.23         0.01
  36inch_2                    0.01      0.49      0.01      0.87         0.01
  848pipe                     0.88      3.35      0.88      4.00         2.62
  849_1                       0.01      0.01      0.01      0.84         0.01
  849_2                       0.01      0.01      0.01      0.84         0.01
  853pipe                    23.87     23.87     23.87      0.11         0.10
  861_1                       0.57      0.68      0.57      1.06         0.64
  861_2                       0.57      0.68      0.57      1.06         0.64
  883culv                     1.65      1.86      5.89      1.57         1.40
  889pipe                     0.68      0.68     23.73      0.01         0.01
  691pipe                     1.35      1.35      1.62      0.01         0.01
  892pipe                     1.24      6.66      1.48      7.84         4.49
  893pipe                     0.38      0.38      1.35      0.01         0.01
  55_5x12_1                   1.31      1.31      1.39      0.01         0.08
  55_5x12_2                   1.31      1.31      1.39      0.01         0.08
  708pipe                     1.06      1.07      1.07      0.20         0.17
  706pipe                     1.07      1.07      1.09      1.08         1.05
  704pipe                     1.13      1.13      1.15      1.09         1.06
  702pipe                     1.14      1.15      1.38      1.10         1.07
  700pipe                     1.41      1.53      1.54      1.23         1.15
  707pipe                     0.97      1.04      1.09      0.21         0.15
  705pipe                     1.06      1.17      1.10      0.42         0.38
  750p                        0.88      1.03      0.88      1.04         0.98
  701pipe                     0.20      1.18      0.20      1.20         1.17
  740pipe                     1.09      1.12     23.76      1.07         1.05
  768pipe                     0.66      1.31      0.81      1.33         1.29
  770pipe                     1.33      1.35      1.33      0.17         0.12
  769pipe                     1.31      1.33      1.31      1.36         1.33
  782pipe                     1.00      1.20      1.00      0.32         0.29
  781pipe                     0.96      0.96      1.19      0.01         0.01
  780pipe                     1.19      1.19      1.25      0.91         0.90
  775pipe                     1.28      1.28      1.29      0.54         0.16
  774pipe                     1.29      1.29      1.31      1.13         1.12
  773pipe                     1.29      1.31      1.32      1.16         0.76
  772pipe                     1.30      1.32      1.36      1.25         1.06
  771pipe                     1.33      1.36      1.35      1.18         0.29
  DEANPIPE1                   0.19      0.19      0.24      0.10         0.08
  DEANPIPE2                   0.19      0.19      0.24      0.10         0.08
  GBPIPE                      0.01      0.01      0.01      0.35         0.01
  DEERWPIPE                   0.06      0.55      0.06      1.70         0.45
  PATH_PIPE                  23.71     23.71     23.71      0.58         0.55
  BradleyIn                   0.01      0.01      3.29      0.01         0.01
  Brad_Out                    1.88     19.04      1.99     14.12        16.23
  

  Analysis begun on:  Tue Jun 23 21:16:22 2026
  Analysis ended on:  Tue Jun 23 21:16:28 2026
  Total elapsed time: 00:00:06