
  EPA STORM WATER MANAGEMENT MODEL - VERSION 5.2 (Build 5.2.4)
  ------------------------------------------------------------

  WARNING 04: minimum elevation drop used for Conduit GM.5561.02.061
  WARNING 04: minimum elevation drop used for Conduit GM.5562.04.035
  WARNING 04: minimum elevation drop used for Conduit GM.5562.04.036
  WARNING 04: minimum elevation drop used for Conduit GM.5760.03.CSO62
  WARNING 04: minimum elevation drop used for Conduit GM.5761.02.041
  WARNING 04: minimum elevation drop used for Conduit GM.5761.04.CSO61.1
  WARNING 04: minimum elevation drop used for Conduit GM.5762.01.OUTFALL55
  
  ****************
  Analysis Options
  ****************
  Flow Units ............... CFS
  Process Models:
    Rainfall/Runoff ........ YES
    RDII ................... YES
    Snowmelt ............... NO
    Groundwater ............ YES
    Flow Routing ........... YES
    Ponding Allowed ........ NO
    Water Quality .......... NO
  Infiltration Method ...... HORTON
  Flow Routing Method ...... DYNWAVE
  Surcharge Method ......... EXTRAN
  Starting Date ............ 01/01/1995 00:00:00
  Ending Date .............. 02/02/1995 00:00:00
  Antecedent Dry Days ...... 5.0
  Report Time Step ......... 01:00:00
  Wet Time Step ............ 00:05:00
  Dry Time Step ............ 01:00:00
  Routing Time Step ........ 60.00 sec
  Variable Time Step ....... YES
  Maximum Trials ........... 8
  Number of Threads ........ 1
  Head Tolerance ........... 0.005000 ft
  
  
  *********************
  Rainfall File Summary
  *********************
  Station    First        Last         Recording   Periods    Periods    Periods
  ID         Date         Date         Frequency  w/Precip    Missing    Malfunc.
  -------------------------------------------------------------------------------
  
  
  ERROR 317: cannot open rainfall data file C:\SWMMandSoftware\SWMM5.013_June2018\EPASWMM5.1.013\Swmm5.1.013UpdateTests\DataFiles\Rain_1948_2010.dat.

  Analysis begun on:  Tue Jun 23 20:45:55 2026
  Analysis ended on:  Tue Jun 23 20:45:55 2026
  Total elapsed time: < 1 sec