
  EPA STORM WATER MANAGEMENT MODEL - VERSION 5.2 (Build 5.2.4)
  ------------------------------------------------------------

  WARNING 04: minimum elevation drop used for Conduit LKSerene_ovfl1
  
  ****************
  Analysis Options
  ****************
  Flow Units ............... CFS
  Process Models:
    Rainfall/Runoff ........ YES
    RDII ................... NO
    Snowmelt ............... NO
    Groundwater ............ NO
    Flow Routing ........... YES
    Ponding Allowed ........ YES
    Water Quality .......... NO
  Infiltration Method ...... HORTON
  Flow Routing Method ...... DYNWAVE
  Surcharge Method ......... EXTRAN
  Starting Date ............ 08/01/2002 00:00:00
  Ending Date .............. 10/01/2002 09:00:00
  Antecedent Dry Days ...... 0.0
  Report Time Step ......... 00:10:00
  Wet Time Step ............ 00:01:00
  Dry Time Step ............ 01:00:00
  Routing Time Step ........ 10.00 sec
  Variable Time Step ....... YES
  Maximum Trials ........... 8
  Number of Threads ........ 1
  Head Tolerance ........... 0.005000 ft
  
  
  **************************        Volume         Depth
  Runoff Quantity Continuity     acre-feet        inches
  **************************     ---------       -------
  Total Precipitation ......      4727.777        10.600
  Evaporation Loss .........      1832.263         4.108
  Infiltration Loss ........       971.910         2.179
  Surface Runoff ...........      1923.608         4.313
  Final Storage ............         0.000         0.000
  Continuity Error (%) .....        -0.000
  
  
  **************************        Volume        Volume
  Flow Routing Continuity        acre-feet      10^6 gal
  **************************     ---------     ---------
  Dry Weather Inflow .......         0.000         0.000
  Wet Weather Inflow .......      1923.540       626.814
  Groundwater Inflow .......         0.000         0.000
  RDII Inflow ..............         0.000         0.000
  External Inflow ..........       652.509       212.630
  External Outflow .........     16570.041      5399.595
  Flooding Loss ............    335853.788    109442.974
  Evaporation Loss .........      2091.031       681.394
  Exfiltration Loss ........         0.000         0.000
  Initial Stored Volume ....       188.093        61.293
  Final Stored Volume ......       843.993       275.028
  Continuity Error (%) .....    -12756.027
  
  
  *************************
  Highest Continuity Errors
  *************************
  Node 0200 (-92.14%)
  Node 7999 (45.52%)
  Node 1300 (-33.40%)
  Node 1350 (-22.63%)
  Node 0150 (-15.17%)
  
  
  ***************************
  Time-Step Critical Elements
  ***************************
  Node 0150 (51.50%)
  Link CULV-1350A (17.65%)
  Node 1300 (13.99%)
  Node 1500 (8.56%)
  
  
  ********************************
  Highest Flow Instability Indexes
  ********************************
  Link Weir1500b (124)
  Link Weir1500a (124)
  Link Weir0150a (110)
  Link Weir1300a (106)
  Link CULV-1350A (104)
  
  
  *********************************
  Most Frequent Nonconverging Nodes
  *********************************
  Node 0010 (99.81%)
  Node 7998 (99.81%)
  Node 0150 (98.35%)
  Node 1500 (95.52%)
  Node 0100 (79.95%)
  
  
  *************************
  Routing Time Step Summary
  *************************
  Minimum Time Step           :     0.50 sec
  Average Time Step           :     3.82 sec
  Maximum Time Step           :    10.00 sec
  % of Time in Steady State   :     0.00
  Average Iterations per Step :     7.99
  % of Steps Not Converging   :    99.81
  Time Step Frequencies       :
     10.000 -  5.493 sec      :    19.25 %
      5.493 -  3.017 sec      :    39.92 %
      3.017 -  1.657 sec      :    20.83 %
      1.657 -  0.910 sec      :    13.65 %
      0.910 -  0.500 sec      :     6.35 %
  
  
  ***************************
  Subcatchment Runoff Summary
  ***************************
  
  ------------------------------------------------------------------------------------------------------------------------------
                            Total      Total      Total      Total     Imperv       Perv      Total       Total     Peak  Runoff
                           Precip      Runon       Evap      Infil     Runoff     Runoff     Runoff      Runoff   Runoff   Coeff
  Subcatchment                 in         in         in         in         in         in         in    10^6 gal      CFS
  ------------------------------------------------------------------------------------------------------------------------------
  BSL0100                   10.60       0.00       3.94       1.02       5.64       0.00       5.64       58.80   311.40   0.532
  BSL0200                   10.60       0.00       4.64       3.13       1.66       1.18       2.83       84.60   482.08   0.267
  BSL0300                   10.60       0.00       3.57       0.08       6.95       0.00       6.95       24.40   171.79   0.656
  BSL0400                   10.60       0.00       4.07       2.56       1.95       2.02       3.97       22.34   123.95   0.375
  BSL0500                   10.60       0.00       3.05       0.02       7.53       0.00       7.53        4.05    38.97   0.710
  BSL0600                   10.60       0.00       3.42       3.04       2.18       1.96       4.14       20.48   120.32   0.390
  BSL0700                   10.60       0.00       4.42       1.06       5.12       0.00       5.12       85.89   370.29   0.483
  BSL0800                   10.60       0.00       4.02       1.93       2.05       2.60       4.65      104.80   578.04   0.439
  BSL0900                   10.60       0.00       2.51       1.75       6.34       0.00       6.34        2.67    25.97   0.598
  BSL1000                   10.60       0.00       3.11       2.28       3.33       1.88       5.21       11.37    82.41   0.491
  BSL1100                   10.60       0.00       3.07       0.41       7.12       0.00       7.12        8.70    78.68   0.671
  BSL1200                   10.60       0.00       3.32       4.06       2.06       1.16       3.22       14.60    97.57   0.303
  BSL1300                   10.60       0.00       3.67       0.04       6.88       0.00       6.88       28.39   193.54   0.649
  BSL1400                   10.60       0.00       3.61       2.87       2.93       1.19       4.12       53.47   366.03   0.389
  BSL1500                   10.60       0.00       3.46       0.16       6.98       0.00       6.98       21.11   154.74   0.658
  BSL1600                   10.60       0.00       4.40       2.61       2.26       1.33       3.59       81.12   508.47   0.339
  
  
  ******************
  Node Depth Summary
  ******************
  
  ---------------------------------------------------------------------------------
                                 Average  Maximum  Maximum  Time of Max    Reported
                                   Depth    Depth      HGL   Occurrence   Max Depth
  Node                 Type         Feet     Feet     Feet  days hr:min        Feet
  ---------------------------------------------------------------------------------
  0055                 JUNCTION    19.60    23.59   119.78     0  13:46       23.20
  0060                 JUNCTION    20.42    24.41   119.78     0  13:46       24.05
  0065                 JUNCTION    20.80    25.18   120.50     0  13:45       24.48
  0070                 JUNCTION    22.11    26.50   120.51     0  13:45       25.80
  7999                 JUNCTION    23.35    24.03    64.03    61  00:41       24.03
  8000                 JUNCTION    20.35    21.03    64.03    61  00:26       21.03
  8001                 JUNCTION    19.35    20.03    64.03    61  00:41       20.03
  8002                 JUNCTION    18.35    19.03    64.03    61  00:42       19.03
  8003                 JUNCTION    17.35    18.03    64.03    61  00:40       18.03
  8004                 JUNCTION    16.35    17.03    64.03    61  00:40       17.03
  8005                 JUNCTION    15.35    16.03    64.03    61  00:44       16.03
  8006                 JUNCTION    14.35    15.03    64.03    61  00:41       15.03
  8007                 JUNCTION    13.35    14.03    64.03    61  00:44       14.03
  0010                 OUTFALL      7.00     7.00    89.77     0  00:00        7.00
  7998                 OUTFALL     33.35    34.03    64.03    61  00:00       34.03
  0015                 STORAGE      3.04     3.25    93.01     0  14:02        3.25
  0020                 STORAGE      6.77     7.52    99.77     0  14:02        7.52
  0025                 STORAGE      9.80    11.18   104.27     0  14:01       11.18
  0030                 STORAGE     12.92    14.88   108.24     0  14:00       14.88
  0035                 STORAGE     17.94    21.14   116.91     0  13:50       21.14
  0040                 STORAGE     18.82    22.09   117.37     0  13:50       22.09
  0045                 STORAGE     18.79    22.14   117.84     0  13:48       22.12
  0050                 STORAGE     19.02    22.48   118.40     0  13:47       22.44
  0100                 STORAGE     41.58    45.84   120.84     0  13:45       45.34
  0300                 STORAGE     16.89    50.00   145.00     0  08:44       50.00
  0500                 STORAGE     21.61    25.56   120.56     0  13:32       25.36
  0700                 STORAGE     41.59    45.43   120.43     0  13:42       45.41
  0900                 STORAGE     26.60    30.50   120.50     0  13:48       30.39
  1100                 STORAGE     31.61    35.46   120.46     0  13:40       35.40
  1300                 STORAGE     35.79    50.00   125.00     0  08:37       50.00
  1500                 STORAGE     32.35    50.00   135.00     0  07:24       50.00
  1350                 STORAGE     21.49    39.56   134.56     0  10:03       39.40
  0250                 STORAGE     16.85    35.73   130.63     0  12:53       31.08
  0200                 STORAGE     17.53    35.80   130.00     0  12:53       31.56
  0150                 STORAGE     26.63    50.00   140.40     0  08:21       50.00
  
  
  *******************
  Node Inflow Summary
  *******************
  
  -------------------------------------------------------------------------------------------------
                                  Maximum  Maximum                  Lateral       Total        Flow
                                  Lateral    Total  Time of Max      Inflow      Inflow     Balance
                                   Inflow   Inflow   Occurrence      Volume      Volume       Error
  Node                 Type           CFS      CFS  days hr:min    10^6 gal    10^6 gal     Percent
  -------------------------------------------------------------------------------------------------
  0055                 JUNCTION      0.00   192.84     0  11:01           0     5.4e+03       0.015
  0060                 JUNCTION      0.00   217.03     0  09:48           0    5.41e+03       0.019
  0065                 JUNCTION      0.00   221.51     0  08:54           0     5.4e+03      -0.078
  0070                 JUNCTION      0.00   276.95     0  08:40           0    5.41e+03       0.068
  7999                 JUNCTION      0.00    14.16     0  01:03           0         215      83.549
  8000                 JUNCTION      0.00     2.36     0  07:28           0          28     363.543
  8001                 JUNCTION      0.00     0.44     0  01:00           0        6.95      80.101
  8002                 JUNCTION      0.00     0.46     0  01:00           0        7.09      87.325
  8003                 JUNCTION      0.00     0.45     0  01:06           0        7.18      93.560
  8004                 JUNCTION      0.00     0.46     0  03:07           0        7.24      98.995
  8005                 JUNCTION      0.00     0.44     0  01:06           0        7.26     103.761
  8006                 JUNCTION      0.00     0.44     0  01:00           0        7.26     107.947
  8007                 JUNCTION      0.00     0.43     0  11:45           0        7.23     111.623
  0010                 OUTFALL       0.00   147.71     0  14:02           0     5.4e+03       0.000
  7998                 OUTFALL       0.00    14.16     0  01:03           0         213       0.000
  0015                 STORAGE       0.00   147.71     0  14:02           0     5.4e+03       0.000
  0020                 STORAGE       0.00   147.71     0  13:54           0     5.4e+03       0.002
  0025                 STORAGE       0.00   147.76     0  13:51           0     5.4e+03       0.001
  0030                 STORAGE       0.00   147.89     0  13:50           0     5.4e+03       0.002
  0035                 STORAGE       0.00   148.42     0  13:48           0     5.4e+03       0.002
  0040                 STORAGE       0.00   159.32     0  11:16           0     5.4e+03       0.002
  0045                 STORAGE       0.00   162.06     0  11:15           0     5.4e+03       0.003
  0050                 STORAGE       0.00   182.35     0  11:08           0     5.4e+03       0.004
  0100                 STORAGE     759.09 91509.10     0  20:26         143    8.93e+04     -36.263
  0300                 STORAGE     293.24   293.24     0  09:30        46.7        86.2       0.183
  0500                 STORAGE     159.29  2867.66     0  08:45        24.5    4.09e+03       1.189
  0700                 STORAGE     921.35 39344.68     0  08:44         191    1.46e+05      -1.845
  0900                 STORAGE     108.37 10666.11     0  08:42          14    1.54e+04       0.669
  1100                 STORAGE     176.25  1401.96    52  06:45        23.3     4.6e+03       0.466
  1300                 STORAGE     550.75 35578.49     0  16:59        81.9    1.13e+05     -25.039
  1500                 STORAGE     663.21 10254.08     0  11:10         102    3.75e+04      -0.580
  1350                 STORAGE       0.00 10123.63    15  05:08           0    3.31e+04     -18.456
  0250                 STORAGE       0.00   194.60     0  08:51           0         130       1.247
  0200                 STORAGE       0.00   321.94     0  10:08           0         129     -47.954
  0150                 STORAGE       0.00 70540.70     0  13:46           0    1.05e+05     -13.173
  
  
  **********************
  Node Surcharge Summary
  **********************
  
  Surcharging occurs when water rises above the top of the highest conduit.
  ---------------------------------------------------------------------
                                               Max. Height   Min. Depth
                                   Hours       Above Crown    Below Rim
  Node                 Type      Surcharged           Feet         Feet
  ---------------------------------------------------------------------
  0055                 JUNCTION     1461.70          4.493       26.407
  0060                 JUNCTION     1462.10          5.308       25.592
  0065                 JUNCTION     1463.92         14.679       24.821
  0070                 JUNCTION     1464.10         15.997       23.503
  
  
  *********************
  Node Flooding Summary
  *********************
  
  Flooding refers to all water that overflows a node, whether it ponds or not.
  --------------------------------------------------------------------------
                                                             Total   Maximum
                                 Maximum   Time of Max       Flood    Ponded
                        Hours       Rate    Occurrence      Volume     Depth
  Node                 Flooded       CFS   days hr:min    10^6 gal      Feet
  --------------------------------------------------------------------------
  0300                    3.65    121.29      0  10:27       6.744     0.000
  1300                  390.40  18051.34      0  14:38   62142.325     0.000
  1500                  201.07   3962.57      0  09:06    6405.144     0.000
  0150                  168.39  34056.46      0  14:23   51450.541     0.000
  
  
  **********************
  Storage Volume Summary
  **********************
  
  ------------------------------------------------------------------------------------------------
                         Average    Avg   Evap  Exfil     Maximum    Max    Time of Max    Maximum
                          Volume   Pcnt   Pcnt   Pcnt      Volume   Pcnt     Occurrence    Outflow
  Storage Unit          1000 ftł   Full   Loss   Loss    1000 ftł   Full    days hr:min        CFS
  ------------------------------------------------------------------------------------------------
  0015                     0.462    0.4    0.0    0.0       0.528    0.4       0  14:02     147.71
  0020                     2.300    1.8    0.0    0.0       2.828    2.3       0  14:02     147.71
  0025                     4.811    3.8    0.0    0.0       6.255    5.0       0  14:01     147.71
  0030                     8.375    6.7    0.0    0.0      11.070    8.9       0  14:00     147.76
  0035                    16.133   12.9    0.0    0.0      22.339   17.9       0  13:50     147.89
  0040                   177.671   14.2    0.0    0.0     244.025   19.5       0  13:50     148.42
  0045                    17.706   14.2    0.0    0.0      24.512   19.6       0  13:48     159.32
  0050                    90.704   14.5    0.0    0.0     126.373   20.2       0  13:47     162.06
  0100                    17.238   69.8    0.0    0.0      20.818   84.4       0  13:45   72097.65
  0300                     2.391   15.8    0.0    0.0      15.155  100.0       0  08:44     194.60
  0500                     1.279   19.7    0.0    0.0       1.758   27.0       0  13:32    1180.16
  0700                    32.828   70.8    0.0    0.0      38.661   83.4       0  13:42   38367.16
  0900                     0.780   32.8    0.0    0.0       0.986   41.5       0  13:48   13291.79
  1100                     2.080   42.1    0.0    0.0       2.568   52.0       0  13:40    1386.22
  1300                     5.884   63.8    0.0    0.0       9.225  100.0       0  08:37   36033.39
  1500                     4.604   50.1    0.0    0.0       9.188  100.0       0  07:24   10123.63
  1350                   231.828   18.5    0.0    0.0     782.423   62.6       0  10:03   10003.76
  0250                     0.205    5.3    0.0    0.0       1.737   44.5       0  12:53     202.19
  0200                    15.458   12.4    0.0    0.0      64.093   51.3       0  12:53     427.30
  0150                     0.072   35.4    0.0    0.0       0.202  100.0       0  08:21   90526.76
  
  
  ***********************
  Outfall Loading Summary
  ***********************
  
  -----------------------------------------------------------
                         Flow       Avg       Max       Total
                         Freq      Flow      Flow      Volume
  Outfall Node           Pcnt       CFS       CFS    10^6 gal
  -----------------------------------------------------------
  0010                  99.76    136.88    147.71    5399.060
  7998                 100.00      5.36     14.16     212.749
  -----------------------------------------------------------
  System                99.88    142.24    161.61    5611.808
  
  
  ********************
  Link Flow Summary
  ********************
  
  -----------------------------------------------------------------------------
                                 Maximum  Time of Max   Maximum    Max/    Max/
                                  |Flow|   Occurrence   |Veloc|    Full    Full
  Link                 Type          CFS  days hr:min    ft/sec    Flow   Depth
  -----------------------------------------------------------------------------
  DUMMY0               CONDUIT     14.16     0  01:03      0.00    0.00    0.90
  DUMMY1               CONDUIT      2.36     0  07:28      0.00    0.00    0.75
  DUMMY2               CONDUIT      0.44     0  01:00      0.00    0.00    0.73
  DUMMY3               CONDUIT      0.46     0  01:00      0.00    0.00    0.72
  DUMMY4               CONDUIT      0.45     0  01:06      0.00    0.00    0.70
  DUMMY5               CONDUIT      0.46     0  03:07      0.00    0.00    0.68
  DUMMY6               CONDUIT      0.44     0  01:06      0.00    0.00    0.67
  DUMMY7               CONDUIT      0.44     0  01:00      0.00    0.00    0.65
  DUMMY8               CONDUIT      0.43     0  11:45      0.00    0.00    0.63
  CULV-20              CONDUIT    147.71     0  14:02     12.01    2.47    0.95
  CULV-25              CONDUIT    147.71     0  13:54     11.75    2.43    1.00
  CULV-30              CONDUIT    147.76     0  13:51     11.76    3.11    1.00
  CULV-35              CONDUIT    147.89     0  13:50      9.30    2.28    1.00
  CULV-40A             CONDUIT     49.47     0  13:48      7.00    1.21    1.00
  CULV-40B             CONDUIT     49.47     0  13:48      7.00    1.27    1.00
  CULV-40C             CONDUIT     49.47     0  13:48      7.00    1.16    1.00
  CULV-45A             CONDUIT     79.66     0  11:16      6.34    1.26    1.00
  CULV-45B             CONDUIT     79.66     0  11:16      6.34    1.12    1.00
  CULV-50              CONDUIT    162.06     0  11:15      6.75    1.69    1.00
  CULV-55A             CONDUIT     91.18     0  11:08      7.26    3.89    1.00
  CULV-55B             CONDUIT     91.18     0  11:08      7.26    3.55    1.00
  CHAN-60              CHANNEL    192.84     0  11:01      3.69    0.03    1.00
  CULV-65A             CONDUIT     73.78     0  09:48      7.67    2.78    1.00
  CULV-65B             CONDUIT    143.26     0  09:48      9.01    2.54    1.00
  CHAN-70              CHANNEL    221.51     0  08:54      1.36    0.06    1.00
  CULV-100A            CONDUIT    137.70     0  08:40     14.31    1.07    1.00
  CULV-100B            CONDUIT    139.25     0  08:40     14.47    1.37    1.00
  CHAN-700             CHANNEL  22711.84     0  08:42      3.07    0.33    1.00
  LKSerene_ovfl1       CONDUIT     13.95     0  08:16      7.96   72.84    1.00
  CULV-1350A           CONDUIT    183.27     0  10:08     32.66    4.07    1.00
  CULV-1350B           CONDUIT    183.27     0  10:08     32.66    4.07    1.00
  CHAN-900             CHANNEL  13289.85     0  08:18      3.70    0.06    1.00
  CULV-15              CONDUIT    147.71     0  14:02     12.34    0.71    0.91
  CULV-300A            CONDUIT    194.60     0  08:51     39.64    3.88    1.00
  CULV-300B            CONDUIT    202.19     0  08:50     12.71    2.83    1.00
  CULV-300C            CONDUIT    427.30     0  13:16    >50.00    2.10    1.00
  Crowell_ovfl         CONDUIT   2743.67     0  08:45      1.60    1.28    1.00
  LKSerene_ovfl2       CONDUIT   1400.67    52  06:45      1.34    0.14    1.00
  Weir1500a            WEIR      1558.31     0  08:27                      0.76
  Weir1500b            WEIR      8646.86    15  05:08                      0.74
  Weir1300a            WEIR     36033.39    41  15:35                      0.54
  Weir0150a            WEIR     90526.76     0  20:26                      0.90
  
  
  ***************************
  Flow Classification Summary
  ***************************
  
  -------------------------------------------------------------------------------------
                      Adjusted    ---------- Fraction of Time in Flow Class ---------- 
                       /Actual         Up    Down  Sub   Sup   Up    Down  Norm  Inlet 
  Conduit               Length    Dry  Dry   Dry   Crit  Crit  Crit  Crit  Ltd   Ctrl  
  -------------------------------------------------------------------------------------
  DUMMY0                110.47   0.00  0.00  0.00  1.00  0.00  0.00  0.00  0.00  0.00
  DUMMY1                 61.00   0.00  0.00  0.00  1.00  0.00  0.00  0.00  0.00  0.00
  DUMMY2                  8.85   0.00  0.00  0.00  1.00  0.00  0.00  0.00  0.00  0.00
  DUMMY3                  9.76   0.00  0.00  0.00  1.00  0.00  0.00  0.00  0.00  0.00
  DUMMY4                 10.58   0.00  0.00  0.00  1.00  0.00  0.00  0.00  0.00  0.00
  DUMMY5                 11.33   0.00  0.00  0.00  1.00  0.00  0.00  0.00  0.00  0.00
  DUMMY6                 12.03   0.00  0.00  0.00  1.00  0.00  0.00  0.00  0.00  0.00
  DUMMY7                 12.69   0.00  0.00  0.00  1.00  0.00  0.00  0.00  0.00  0.00
  DUMMY8                 13.32   0.00  0.00  0.00  1.00  0.00  0.00  0.00  0.00  0.00
  CULV-20                 1.00   0.01  0.00  0.00  0.00  0.00  0.00  0.99  0.00  0.00
  CULV-25                 1.00   0.01  0.00  0.00  0.99  0.00  0.00  0.00  0.00  0.00
  CULV-30                 1.00   0.01  0.00  0.00  0.99  0.00  0.00  0.00  0.00  0.00
  CULV-35                 1.00   0.01  0.00  0.00  0.99  0.00  0.00  0.00  0.00  0.00
  CULV-40A                1.56   0.01  0.00  0.00  0.99  0.00  0.00  0.00  0.00  0.00
  CULV-40B                1.53   0.01  0.00  0.00  0.99  0.00  0.00  0.00  0.00  0.00
  CULV-40C                1.59   0.01  0.00  0.00  0.99  0.00  0.00  0.00  0.00  0.00
  CULV-45A                1.00   0.01  0.00  0.00  0.99  0.00  0.00  0.00  0.00  0.00
  CULV-45B                1.00   0.01  0.00  0.00  0.99  0.00  0.00  0.00  0.00  0.00
  CULV-50                 1.00   0.01  0.00  0.00  0.99  0.00  0.00  0.00  0.00  0.00
  CULV-55A                1.00   0.01  0.00  0.00  0.99  0.00  0.00  0.00  0.00  0.00
  CULV-55B                1.00   0.01  0.00  0.00  0.99  0.00  0.00  0.00  0.00  0.00
  CHAN-60                 1.00   0.01  0.00  0.00  0.99  0.00  0.00  0.00  0.00  0.00
  CULV-65A                1.00   0.01  0.00  0.00  0.99  0.00  0.00  0.00  0.00  0.00
  CULV-65B                1.00   0.01  0.00  0.00  0.99  0.00  0.00  0.00  0.00  0.00
  CHAN-70                 1.00   0.01  0.00  0.00  0.99  0.00  0.00  0.00  0.00  0.00
  CULV-100A               8.00   0.00  0.00  0.00  0.99  0.00  0.00  0.00  0.00  0.00
  CULV-100B               7.06   0.00  0.00  0.00  0.99  0.00  0.00  0.00  0.00  0.00
  CHAN-700                1.00   0.00  0.00  0.00  1.00  0.00  0.00  0.00  0.00  0.00
  LKSerene_ovfl1          1.00   0.00  0.00  0.00  0.99  0.00  0.00  0.00  0.00  0.00
  CULV-1350A              1.12   0.00  0.00  0.00  0.70  0.00  0.00  0.30  0.00  0.00
  CULV-1350B              1.12   0.00  0.00  0.00  0.70  0.00  0.00  0.30  0.00  0.00
  CHAN-900                1.00   0.00  0.00  0.00  1.00  0.00  0.00  0.00  0.00  0.00
  CULV-15                 1.00   0.00  0.00  0.00  1.00  0.00  0.00  0.00  0.00  0.00
  CULV-300A               1.10   0.00  0.00  0.00  0.99  0.00  0.00  0.01  0.00  0.00
  CULV-300B               1.10   0.00  0.00  0.00  0.99  0.00  0.00  0.01  0.00  0.00
  CULV-300C               1.00   0.00  0.00  0.00  0.92  0.08  0.00  0.00  0.00  0.00
  Crowell_ovfl            1.00   0.00  0.00  0.00  0.99  0.00  0.00  0.00  0.00  0.00
  LKSerene_ovfl2          1.00   0.00  0.00  0.00  0.99  0.00  0.00  0.00  0.00  0.00
  
  
  *************************
  Conduit Surcharge Summary
  *************************
  
  ----------------------------------------------------------------------------
                                                           Hours        Hours 
                         --------- Hours Full --------   Above Full   Capacity
  Conduit                Both Ends  Upstream  Dnstream   Normal Flow   Limited
  ----------------------------------------------------------------------------
  DUMMY0                      0.01      0.01   1473.00      0.01         0.01
  CULV-20                     0.01   1464.09      0.01   1464.42         0.01
  CULV-25                  1464.04   1464.28   1464.04   1464.45      1464.04
  CULV-30                  1464.09   1464.09   1464.45   1464.49         0.01
  CULV-35                  1464.21   1464.35   1464.21   1464.46      1464.21
  CULV-40A                 1464.51   1464.51   1464.54   1462.82         0.01
  CULV-40B                 1464.51   1464.51   1464.54   1463.16         0.01
  CULV-40C                 1464.51   1464.51   1464.54   1462.49         0.01
  CULV-45A                 1464.46   1464.46   1464.47   1463.49      1463.39
  CULV-45B                 1464.46   1464.46   1464.48      7.37        12.69
  CULV-50                  1464.44   1464.44   1464.46   1464.35      1464.37
  CULV-55A                 1464.40   1464.40   1464.45   1464.62         0.01
  CULV-55B                 1464.41   1464.41   1464.46   1464.61         0.01
  CHAN-60                  1461.70   1461.70   1462.10      0.01         0.01
  CULV-65A                 1464.70   1464.70   1464.71   1464.63         0.18
  CULV-65B                 1464.62   1464.62   1464.63   1464.62         0.15
  CHAN-70                  1463.92   1463.92   1464.10      0.01         0.01
  CULV-100A                1464.74   1464.74   1464.91      0.02         0.01
  CULV-100B                1464.77   1464.77   1464.90      0.24         0.01
  CHAN-700                 1464.01   1464.01   1464.17      0.01         0.01
  LKSerene_ovfl1           1464.72   1467.97   1464.72    695.00       723.34
  CULV-1350A               1017.60   1466.65   1023.94    807.04       358.26
  CULV-1350B               1017.60   1466.65   1023.94    807.04       358.26
  CHAN-900                 1463.37   1463.37   1464.68      0.01         0.01
  CULV-15                     0.01      0.01   1473.00      0.01         0.01
  CULV-300A                1464.09   1464.20   1465.63      9.71         9.53
  CULV-300B                1464.66   1464.66   1464.66      8.19        38.64
  CULV-300C                 947.26   1464.66    950.69      7.81       121.97
  Crowell_ovfl             1464.12   1464.12   1464.18      0.05         0.05
  LKSerene_ovfl2           1463.67   1463.67   1463.85      0.01         0.01
  

  Analysis begun on:  Tue Jun 23 20:45:59 2026
  Analysis ended on:  Tue Jun 23 20:46:54 2026
  Total elapsed time: 00:00:55