
  EPA STORM WATER MANAGEMENT MODEL - VERSION 5.2 (Build 5.2.4)
  ------------------------------------------------------------

  WARNING 04: minimum elevation drop used for Conduit CULVERT_03
  WARNING 08: elevation drop exceeds length for Conduit OVERLAND_03
  WARNING 03: negative offset ignored for Link OVERLAND_07
  WARNING 10: crest elevation raised to downstream invert for regulator Link O_ACD72_02
  WARNING 02: maximum depth increased for Node OVERLAND_03J
  
  ****************
  Analysis Options
  ****************
  Flow Units ............... CFS
  Process Models:
    Rainfall/Runoff ........ YES
    RDII ................... NO
    Snowmelt ............... YES
    Groundwater ............ NO
    Flow Routing ........... YES
    Ponding Allowed ........ YES
    Water Quality .......... NO
  Infiltration Method ...... CURVE_NUMBER
  Flow Routing Method ...... DYNWAVE
  Surcharge Method ......... EXTRAN
  Starting Date ............ 01/01/2002 00:00:00
  Ending Date .............. 01/08/2002 06:00:00
  Antecedent Dry Days ...... 5.0
  Report Time Step ......... 00:10:00
  Wet Time Step ............ 00:05:00
  Dry Time Step ............ 01:00:00
  Routing Time Step ........ 5.00 sec
  Variable Time Step ....... YES
  Maximum Trials ........... 8
  Number of Threads ........ 1
  Head Tolerance ........... 0.005000 ft
  
  
  **************************        Volume         Depth
  Runoff Quantity Continuity     acre-feet        inches
  **************************     ---------       -------
  Initial Snow Cover .......         0.000         0.000
  Total Precipitation ......       102.117         2.800
  Evaporation Loss .........         0.000         0.000
  Infiltration Loss ........        45.809         1.256
  Surface Runoff ...........        54.584         1.497
  Snow Removed .............         0.000         0.000
  Final Snow Cover .........         0.000         0.000
  Final Storage ............         1.737         0.048
  Continuity Error (%) .....        -0.012
  
  
  **************************        Volume        Volume
  Flow Routing Continuity        acre-feet      10^6 gal
  **************************     ---------     ---------
  Dry Weather Inflow .......         0.000         0.000
  Wet Weather Inflow .......        54.584        17.787
  Groundwater Inflow .......         0.000         0.000
  RDII Inflow ..............         0.000         0.000
  External Inflow ..........         0.000         0.000
  External Outflow .........        52.114        16.982
  Flooding Loss ............         1.605         0.523
  Evaporation Loss .........         0.000         0.000
  Exfiltration Loss ........         0.000         0.000
  Initial Stored Volume ....         3.566         1.162
  Final Stored Volume ......         7.722         2.516
  Continuity Error (%) .....        -5.659
  
  
  *************************
  Highest Continuity Errors
  *************************
  Node BR11_L4A_01 (-9.95%)
  Node S_ACD72_09 (9.29%)
  Node BR1_05 (8.13%)
  Node BR11_L4A_02 (5.31%)
  Node S_ACD72_03 (-4.85%)
  
  
  ***************************
  Time-Step Critical Elements
  ***************************
  Link CULVERT_03 (5.72%)
  
  
  ********************************
  Highest Flow Instability Indexes
  ********************************
  Link O_ACD72_12A (43)
  Link O_ACD72_14 (43)
  Link O_ACD72_15A (40)
  Link O_ACD72_12B (34)
  Link O_ACD72_02 (31)
  
  
  *********************************
  Most Frequent Nonconverging Nodes
  *********************************
  Node LEAVING_SYSTEM1 (28.60%)
  Node LEAVING_SYSTEM2 (28.60%)
  Node LEAVING_SYSTEM4 (28.60%)
  Node LEAVING_SYSTEM_3 (28.60%)
  Node PELTIER (28.60%)
  
  
  *************************
  Routing Time Step Summary
  *************************
  Minimum Time Step           :     0.56 sec
  Average Time Step           :     4.90 sec
  Maximum Time Step           :     5.00 sec
  % of Time in Steady State   :     0.00
  Average Iterations per Step :     3.74
  % of Steps Not Converging   :    28.60
  Time Step Frequencies       :
      5.000 -  0.910 sec      :   100.00 %
      0.910 -  0.166 sec      :     0.00 %
      0.166 -  0.030 sec      :     0.00 %
      0.030 -  0.005 sec      :     0.00 %
      0.005 -  0.001 sec      :     0.00 %
  
  
  ***************************
  Subcatchment Runoff Summary
  ***************************
  
  ------------------------------------------------------------------------------------------------------------------------------
                            Total      Total      Total      Total     Imperv       Perv      Total       Total     Peak  Runoff
                           Precip      Runon       Evap      Infil     Runoff     Runoff     Runoff      Runoff   Runoff   Coeff
  Subcatchment                 in         in         in         in         in         in         in    10^6 gal      CFS
  ------------------------------------------------------------------------------------------------------------------------------
  ACD72_01                   2.80       0.00       0.00       1.15       0.69       0.91       1.60        2.87    29.47   0.573
  ACD72_02                   2.80       0.00       0.00       1.15       0.69       0.92       1.61        1.29    15.17   0.573
  ACD72_03                   2.80       0.00       0.00       1.15       0.69       0.92       1.61        0.61     7.87   0.574
  ACD72_04                   2.80       0.00       0.00       1.15       0.69       0.92       1.61        0.41     5.45   0.574
  ACD72_04B                  2.80       0.00       0.00       1.15       0.69       0.92       1.61        0.53     6.88   0.574
  ACD72_05                   2.80       0.00       0.00       1.42       0.69       0.64       1.33        0.68     8.05   0.475
  ACD72_06                   2.80       0.00       0.00       1.15       0.69       0.91       1.60        2.55    26.77   0.573
  ACD72_07                   2.80       0.00       0.00       1.42       0.69       0.64       1.33        0.23     3.13   0.475
  ACD72_08                   2.80       0.00       0.00       1.50       0.69       0.57       1.26        0.17     2.29   0.449
  ACD72_09                   2.80       0.00       0.00       1.43       0.69       0.64       1.33        2.05    19.57   0.474
  ACD72_10                   2.80       0.00       0.00       1.42       0.69       0.64       1.33        1.05    11.54   0.474
  ACD72_11                   2.80       0.00       0.00       1.47       0.69       0.59       1.28        0.54     6.57   0.458
  ACD72_12                   2.80       0.00       0.00       1.28       0.69       0.78       1.47        2.18    22.19   0.524
  ACD72_14                   2.80       0.00       0.00       1.17       0.69       0.90       1.59        0.98    11.90   0.567
  ACD72_15                   2.80       0.00       0.00       1.21       0.69       0.85       1.54        0.86    10.47   0.550
  ACD72_16                   2.80       0.00       0.00       1.17       0.69       0.90       1.59        0.70     8.80   0.567
  ACD72_17                   2.80       0.00       0.00       1.21       0.69       0.85       1.54        0.11     1.50   0.551
  
  
  ******************
  Node Depth Summary
  ******************
  
  ---------------------------------------------------------------------------------
                                 Average  Maximum  Maximum  Time of Max    Reported
                                   Depth    Depth      HGL   Occurrence   Max Depth
  Node                 Type         Feet     Feet     Feet  days hr:min        Feet
  ---------------------------------------------------------------------------------
  BR11_01              JUNCTION     0.17     0.35   902.91     2  00:05        0.35
  BR11_02              JUNCTION     0.56     1.75   906.47     2  00:05        1.73
  BR11_03              JUNCTION     1.37     4.22   909.35     2  00:02        4.20
  BR11_04              JUNCTION     1.56     4.97   910.30     2  00:02        4.95
  BR11_05              JUNCTION     1.79     5.68   911.21     1  23:57        5.65
  BR11_06              JUNCTION     1.79     6.02   911.89     1  23:59        6.01
  BR11_07              JUNCTION     1.84     6.30   912.43     2  00:00        6.26
  BR11_08              JUNCTION     1.73     6.86   913.30     2  00:02        6.81
  BR11_09              JUNCTION     1.70     7.12   913.70     2  00:00        7.11
  BR11_10              JUNCTION     1.43     8.75   916.35     1  23:58        8.75
  BR11_11              JUNCTION     1.40    10.22   917.97     2  00:02       10.21
  BR11_L10             JUNCTION     1.53     4.36   911.96     2  00:27        4.36
  BR11_L2              JUNCTION     1.66     5.21   910.90     2  00:02        5.21
  BR11_L4A_01          JUNCTION     2.11    11.49   918.49     2  00:23       11.46
  BR11_L4A_02          JUNCTION     1.23     5.47   914.27     2  00:00        5.47
  BR1_01               JUNCTION     1.50     4.88   895.78     2  02:31        4.87
  BR1_02               JUNCTION     1.65     6.18   897.88     2  02:00        6.16
  BR1_03               JUNCTION     1.93     8.75   902.85     2  01:24        8.75
  BR1_03B              JUNCTION     1.94     8.83   902.63     2  01:24        8.83
  BR1_04               JUNCTION     1.82     8.48   902.98     2  01:23        8.48
  BR1_05               JUNCTION     2.04     8.02   903.27     2  01:18        8.02
  BR1_06               JUNCTION     2.04     8.10   903.35     2  01:16        8.08
  BR1_07               JUNCTION     1.81     7.82   903.67     2  01:11        7.80
  BR1_08               JUNCTION     1.66     7.54   903.99     2  01:12        7.51
  BR1_09               JUNCTION     1.40     7.02   904.67     2  00:27        7.00
  BR1_10               JUNCTION     1.10     6.00   904.85     2  04:29        5.87
  BR1_L11              JUNCTION     0.26     4.65   910.25     2  00:05        4.65
  MT_00                JUNCTION     0.39     0.84   885.96     2  00:31        0.84
  MT_01                JUNCTION     1.37     2.73   888.28     2  03:07        2.73
  MT_02                JUNCTION     0.45     1.14   888.30     2  03:11        1.14
  MT_03                JUNCTION     1.63     4.28   893.84     2  11:47        4.25
  MT_04                JUNCTION     1.03     2.73   895.84     2  11:11        2.70
  MT_05                JUNCTION     1.24     3.06   898.06     2  11:19        3.06
  MT_06                JUNCTION     1.33     3.82   900.00     2  11:18        3.79
  MT_07                JUNCTION     1.15     4.05   900.55     2  11:15        4.02
  MT_08                JUNCTION     1.04     4.24   901.04     2  11:07        4.20
  MT_09                JUNCTION     0.67     3.40   901.44     2  11:16        3.38
  MT_10                JUNCTION     0.26     1.99   902.09     2  02:04        1.97
  MT_11                JUNCTION     0.73     5.01   905.76     2  00:05        4.99
  MT_12                JUNCTION     0.73     5.91   906.71     2  00:04        5.89
  MT_13                JUNCTION     0.35     5.75   909.75     2  00:25        5.72
  MT_14                JUNCTION     0.55     9.43   913.89     2  00:22        9.43
  OVERLAND_03J         JUNCTION     0.06     0.45   900.01     2  01:30        0.45
  OVERLAND_BR11_01     JUNCTION     0.03     0.34   908.63     2  00:29        0.34
  OVERLAND_BR11_02     JUNCTION     0.08     0.90   909.95     2  00:25        0.90
  LEAVING_SYSTEM1      OUTFALL      0.00     0.08   905.98     2  00:04        0.08
  LEAVING_SYSTEM2      OUTFALL      0.01     0.30   909.76     2  00:00        0.30
  LEAVING_SYSTEM4      OUTFALL      0.01     0.16   908.16     2  00:00        0.16
  LEAVING_SYSTEM_3     OUTFALL      0.01     0.13   908.56     2  00:27        0.13
  PELTIER              OUTFALL      5.48     5.66   885.66     2  06:00        5.66
  S_ACD72_01           STORAGE      1.92     3.96   889.96     2  00:30        3.96
  S_ACD72_02           STORAGE      0.42     1.74   895.74     2  02:47        1.74
  S_ACD72_03           STORAGE      2.06     4.24   903.24     2  01:23        4.24
  S_ACD72_04           STORAGE      0.83     5.24   903.24     2  01:24        5.24
  S_ACD72_04B          STORAGE      1.18     5.24   903.24     2  01:23        5.24
  S_ACD72_05           STORAGE      2.32     3.03   898.03     3  00:44        3.03
  S_ACD72_06           STORAGE      1.21     5.24   903.24     2  01:23        5.24
  S_ACD72_07           STORAGE      2.14     3.84   904.84     2  00:24        3.84
  S_ACD72_08           STORAGE      0.12     2.41   910.41     2  00:04        2.41
  S_ACD72_09           STORAGE      3.16     4.43   901.43     2  16:21        4.43
  S_ACD72_10           STORAGE      2.17     3.63   905.63     2  00:05        3.63
  S_ACD72_11           STORAGE      0.44    10.00   915.00     1  23:13       10.00
  S_ACD72_12           STORAGE      2.81     5.05   911.05     2  00:02        5.05
  S_ACD72_14           STORAGE      2.41     4.29   912.29     2  00:00        4.29
  S_ACD72_15           STORAGE      1.00    10.00   919.00     1  23:25       10.00
  S_ACD72_16           STORAGE      1.46    10.00   919.00     1  22:47       10.00
  S_ACD72_17           STORAGE      0.53     3.05   914.05     2  00:00        3.05
  
  
  *******************
  Node Inflow Summary
  *******************
  
  -------------------------------------------------------------------------------------------------
                                  Maximum  Maximum                  Lateral       Total        Flow
                                  Lateral    Total  Time of Max      Inflow      Inflow     Balance
                                   Inflow   Inflow   Occurrence      Volume      Volume       Error
  Node                 Type           CFS      CFS  days hr:min    10^6 gal    10^6 gal     Percent
  -------------------------------------------------------------------------------------------------
  BR11_01              JUNCTION      0.00     0.84     2  00:03           0        1.53       0.000
  BR11_02              JUNCTION      0.00     0.84     2  00:03           0        1.53       0.002
  BR11_03              JUNCTION      0.00     0.84     2  00:03           0        1.53      -0.001
  BR11_04              JUNCTION      0.00     0.70     2  00:02           0        1.24      -0.037
  BR11_05              JUNCTION      0.00     0.95     1  23:25           0        1.32       0.253
  BR11_06              JUNCTION      0.00     0.46     1  23:25           0       0.699      -0.042
  BR11_07              JUNCTION      0.00     0.54     2  00:41           0       0.702      -0.157
  BR11_08              JUNCTION      0.00     0.54     2  00:40           0        0.27       0.016
  BR11_09              JUNCTION      0.00     0.54     2  00:41           0        0.27       0.012
  BR11_10              JUNCTION      0.00     1.06     1  23:26           0       0.336      -0.001
  BR11_11              JUNCTION      0.00     1.06     1  23:27           0       0.258      -1.818
  BR11_L10             JUNCTION      0.00     3.25     1  23:25           0        0.54      -0.001
  BR11_L2              JUNCTION      0.00     0.16     3  09:03           0       0.287      -0.472
  BR11_L4A_01          JUNCTION      0.00     0.78     1  22:49           0       0.469      -9.052
  BR11_L4A_02          JUNCTION      0.00     0.28     2  03:03           0       0.102       5.602
  BR1_01               JUNCTION      0.00     2.26     2  00:37           0        3.29      -0.023
  BR1_02               JUNCTION      0.00     2.26     2  00:45           0        2.74       0.001
  BR1_03               JUNCTION      0.00     1.26     1  21:51           0        1.48       0.033
  BR1_03B              JUNCTION      0.00     2.26     2  00:37           0        2.73      -0.479
  BR1_04               JUNCTION      0.00     1.27     1  21:55           0         1.5      -2.160
  BR1_05               JUNCTION      0.00     1.69     1  23:05           0        1.38       8.846
  BR1_06               JUNCTION      0.00     0.43     1  22:47           0        0.25      -2.724
  BR1_07               JUNCTION      0.00     0.44     1  22:51           0       0.249      -0.285
  BR1_08               JUNCTION      0.00     0.44     1  22:51           0        0.25       0.162
  BR1_09               JUNCTION      0.00     0.44     1  23:05           0        0.25      -0.018
  BR1_10               JUNCTION      0.00     0.33     2  07:19           0       0.137       2.126
  BR1_L11              JUNCTION      0.00     0.27     1  22:59           0       0.118       2.715
  MT_00                JUNCTION      0.00    30.41     2  00:30           0        15.8       0.023
  MT_01                JUNCTION      0.00    15.75     2  00:30           0        14.7       0.091
  MT_02                JUNCTION      0.00     5.11     2  03:49           0        10.4       0.025
  MT_03                JUNCTION      0.00     5.11     2  04:05           0        10.4       0.024
  MT_04                JUNCTION      0.00     3.36     4  02:39           0        7.22       0.028
  MT_05                JUNCTION      0.00     3.35     4  02:40           0        7.23       0.014
  MT_06                JUNCTION      0.00     2.94     2  07:18           0        6.54       0.020
  MT_07                JUNCTION      0.00     1.07     1  23:17           0       0.893       0.006
  MT_08                JUNCTION      0.00     1.07     1  23:17           0       0.893      -0.004
  MT_09                JUNCTION      0.00     1.07     1  23:17           0       0.893      -0.004
  MT_10                JUNCTION      0.00     1.16     1  23:16           0       0.893       0.005
  MT_11                JUNCTION      0.00     1.18     1  23:16           0       0.898      -0.437
  MT_12                JUNCTION      0.00     1.11     1  23:16           0       0.409       0.018
  MT_13                JUNCTION      0.00     1.11     1  23:15           0       0.409      -0.001
  MT_14                JUNCTION      0.00     1.12     1  23:15           0       0.398      -2.668
  OVERLAND_03J         JUNCTION      0.00     8.89     2  01:23           0        1.68      -0.485
  OVERLAND_BR11_01     JUNCTION      0.00    20.16     2  00:26           0        1.79      -0.715
  OVERLAND_BR11_02     JUNCTION      0.00    21.57     2  00:02           0        1.79       0.098
  LEAVING_SYSTEM1      OUTFALL       0.00     1.67     2  00:04           0      0.0521       0.000
  LEAVING_SYSTEM2      OUTFALL       0.00    11.97     2  00:00           0       0.551       0.000
  LEAVING_SYSTEM4      OUTFALL       0.00     1.72     2  00:00           0       0.141       0.000
  LEAVING_SYSTEM_3     OUTFALL       0.00     3.24     2  00:27           0       0.467       0.000
  PELTIER              OUTFALL       0.00    30.40     2  00:31           0        15.8       0.000
  S_ACD72_01           STORAGE      29.47    31.42     2  00:24        2.87        5.42       0.006
  S_ACD72_02           STORAGE      15.17    20.88     2  00:24        1.29        3.11       0.282
  S_ACD72_03           STORAGE       7.87    32.07     2  00:14       0.611        1.77      -4.630
  S_ACD72_04           STORAGE       5.45    40.50     2  11:30       0.408        2.62      -0.472
  S_ACD72_04B          STORAGE       6.88    32.98     2  00:00       0.526         2.4      -0.617
  S_ACD72_05           STORAGE       8.05     8.05     2  00:00       0.679       0.693       0.233
  S_ACD72_06           STORAGE      26.77    26.77     2  00:00        2.55        2.55      -0.947
  S_ACD72_07           STORAGE       3.13     3.13     2  00:00       0.233       0.235      -4.115
  S_ACD72_08           STORAGE       2.29     2.29     2  00:00       0.169       0.169      -1.147
  S_ACD72_09           STORAGE      19.57    51.14     2  00:24        2.05        4.54      10.239
  S_ACD72_10           STORAGE      11.54    11.64     2  00:00        1.05        1.06      -1.696
  S_ACD72_11           STORAGE       6.57     6.57     2  00:00       0.544       0.544       0.328
  S_ACD72_12           STORAGE      22.19    22.50     2  00:00        2.18        2.26      -0.197
  S_ACD72_14           STORAGE      11.90    12.00     2  00:00       0.981       0.984       0.001
  S_ACD72_15           STORAGE      10.47    10.47     2  00:00       0.858       0.858       0.073
  S_ACD72_16           STORAGE       8.80     8.80     2  00:00       0.695       0.695       0.678
  S_ACD72_17           STORAGE       1.50     1.74     2  00:00       0.105       0.171       0.133
  
  
  **********************
  Node Surcharge Summary
  **********************
  
  Surcharging occurs when water rises above the top of the highest conduit.
  ---------------------------------------------------------------------
                                               Max. Height   Min. Depth
                                   Hours       Above Crown    Below Rim
  Node                 Type      Surcharged           Feet         Feet
  ---------------------------------------------------------------------
  BR11_02              JUNCTION       56.71          1.084       18.249
  BR11_03              JUNCTION       67.73          3.557       15.776
  BR11_04              JUNCTION       66.61          4.299       15.035
  BR11_05              JUNCTION       57.21          3.178       14.322
  BR11_06              JUNCTION       63.19          5.351       13.982
  BR11_07              JUNCTION       56.90          3.630       13.703
  BR11_08              JUNCTION       59.98          6.191       13.142
  BR11_09              JUNCTION       59.38          6.450       12.884
  BR11_10              JUNCTION       57.50          8.083       11.250
  BR11_11              JUNCTION       57.36          9.558        9.776
  BR11_L2              JUNCTION       57.00          2.712       14.788
  BR11_L4A_01          JUNCTION       58.49         10.986        8.514
  BR11_L4A_02          JUNCTION       56.47          5.053       14.530
  BR1_01               JUNCTION       39.03          0.776       15.124
  BR1_02               JUNCTION       54.72          5.345       13.821
  BR1_03               JUNCTION       51.88          7.915       11.252
  BR1_03B              JUNCTION       52.62          7.999       11.168
  BR1_04               JUNCTION       50.03          7.644       11.523
  BR1_05               JUNCTION       54.56          7.357       11.976
  BR1_06               JUNCTION       54.53          7.437       11.896
  BR1_07               JUNCTION       46.55          7.152       12.182
  BR1_08               JUNCTION       45.44          7.041       12.459
  BR1_09               JUNCTION       43.62          6.519       12.981
  BR1_10               JUNCTION       38.27          3.503       13.997
  BR1_L11              JUNCTION        5.92          4.236       15.347
  MT_03                JUNCTION       58.82          3.032       15.718
  MT_04                JUNCTION       50.97          1.483       17.267
  MT_05                JUNCTION       45.20          0.397       16.936
  MT_06                JUNCTION       49.14          1.323       16.177
  MT_07                JUNCTION       54.90          3.212       15.954
  MT_08                JUNCTION       54.39          3.402       15.765
  MT_09                JUNCTION       51.16          2.731       16.603
  MT_10                JUNCTION       13.57          1.321       18.012
  MT_11                JUNCTION       14.97          2.341       14.992
  MT_12                JUNCTION       26.79          5.240       14.093
  MT_13                JUNCTION       13.89          5.081       14.252
  MT_14                JUNCTION       13.70          8.768       10.565
  
  
  *********************
  Node Flooding Summary
  *********************
  
  Flooding refers to all water that overflows a node, whether it ponds or not.
  --------------------------------------------------------------------------
                                                             Total   Maximum
                                 Maximum   Time of Max       Flood    Ponded
                        Hours       Rate    Occurrence      Volume     Depth
  Node                 Flooded       CFS   days hr:min    10^6 gal      Feet
  --------------------------------------------------------------------------
  S_ACD72_11              2.56      5.48      2  00:00       0.145     0.000
  S_ACD72_15              1.28      6.70      2  00:00       0.126     0.000
  S_ACD72_16              4.31      8.04      2  00:00       0.253     0.000
  
  
  **********************
  Storage Volume Summary
  **********************
  
  ------------------------------------------------------------------------------------------------
                         Average    Avg   Evap  Exfil     Maximum    Max    Time of Max    Maximum
                          Volume   Pcnt   Pcnt   Pcnt      Volume   Pcnt     Occurrence    Outflow
  Storage Unit          1000 ftł   Full   Loss   Loss    1000 ftł   Full    days hr:min        CFS
  ------------------------------------------------------------------------------------------------
  S_ACD72_01               0.192   19.2    0.0    0.0       0.396   39.6       2  00:30      25.24
  S_ACD72_02               0.042    4.2    0.0    0.0       0.174   17.4       2  02:47      10.40
  S_ACD72_03               0.206   20.6    0.0    0.0       0.424   42.4       2  01:23      39.26
  S_ACD72_04               0.083    8.3    0.0    0.0       0.524   52.4       2  01:24      27.69
  S_ACD72_04B              0.118   11.8    0.0    0.0       0.524   52.4       2  01:23      34.09
  S_ACD72_05               0.232   23.2    0.0    0.0       0.303   30.3       3  00:44       1.52
  S_ACD72_06               0.121   12.1    0.0    0.0       0.524   52.4       2  01:23      26.29
  S_ACD72_07               0.214   21.4    0.0    0.0       0.384   38.4       2  00:24       2.39
  S_ACD72_08               0.012    1.2    0.0    0.0       0.241   24.1       2  00:04       1.94
  S_ACD72_09               0.316   31.6    0.0    0.0       0.443   44.3       2  16:21       1.47
  S_ACD72_10               0.217   21.7    0.0    0.0       0.363   36.3       2  00:05      10.70
  S_ACD72_11               0.044    4.4    0.0    0.0       1.000  100.0       1  23:13       1.12
  S_ACD72_12               0.281   28.1    0.0    0.0       0.505   50.5       2  00:02      21.72
  S_ACD72_14               0.241   24.1    0.0    0.0       0.429   42.9       2  00:00      11.97
  S_ACD72_15               0.100   10.0    0.0    0.0       1.000  100.0       1  23:25       3.79
  S_ACD72_16               0.146   14.6    0.0    0.0       1.000  100.0       1  22:47       0.78
  S_ACD72_17               0.053    5.3    0.0    0.0       0.305   30.5       2  00:00       1.72
  
  
  ***********************
  Outfall Loading Summary
  ***********************
  
  -----------------------------------------------------------
                         Flow       Avg       Max       Total
                         Freq      Flow      Flow      Volume
  Outfall Node           Pcnt       CFS       CFS    10^6 gal
  -----------------------------------------------------------
  LEAVING_SYSTEM1        3.40      0.47      1.67       0.052
  LEAVING_SYSTEM2       11.38      1.40     11.97       0.551
  LEAVING_SYSTEM4       12.94      0.30      1.72       0.141
  LEAVING_SYSTEM_3      22.65      0.57      3.24       0.467
  PELTIER               96.72      3.85     30.40      15.770
  -----------------------------------------------------------
  System                29.42      6.59     45.58      16.981
  
  
  ********************
  Link Flow Summary
  ********************
  
  -----------------------------------------------------------------------------
                                 Maximum  Time of Max   Maximum    Max/    Max/
                                  |Flow|   Occurrence   |Veloc|    Full    Full
  Link                 Type          CFS  days hr:min    ft/sec    Flow   Depth
  -----------------------------------------------------------------------------
  BR11_01              CONDUIT      0.84     2  00:05      2.97    0.55    0.76
  BR11_02              CONDUIT      0.84     2  00:03      2.93    1.16    0.76
  BR11_03              CONDUIT      0.84     2  00:03      2.40    2.66    1.00
  BR11_04              CONDUIT      0.70     2  00:05      1.99    2.16    1.00
  BR11_05              CONDUIT      0.70     2  00:02      2.00    2.21    1.00
  BR11_06              CONDUIT      0.46     1  23:25      1.33    1.45    1.00
  BR11_07              CONDUIT      0.46     1  23:25      1.33    1.53    1.00
  BR11_08              CONDUIT      0.54     2  00:41      1.53    1.69    1.00
  BR11_09              CONDUIT      0.54     2  00:40      1.54    1.68    1.00
  BR11_10              CONDUIT      0.54     2  00:41      1.53    1.64    1.00
  BR11_11              CONDUIT      1.06     1  23:26      3.04    3.30    1.00
  BR11_L10             CONDUIT      0.52     2  00:01      2.67    3.82    1.00
  BR11_L2              CONDUIT      0.15     3  08:51      1.07    1.70    1.00
  BR11_L4A_01          CONDUIT      0.49     1  22:49      2.50    2.29    1.00
  BR11_L4_02           CONDUIT      0.28     2  03:03      2.08    1.55    1.00
  BR1_01               CONDUIT      2.23     2  01:13      4.09    1.40    1.00
  BR1_02               CONDUIT      2.26     2  00:37      4.14    1.62    1.00
  BR1_03               CONDUIT      1.26     1  21:51      2.45    1.30    1.00
  BR1_03B              CONDUIT      2.26     2  00:45      4.14    1.52    1.00
  BR1_04               CONDUIT      1.26     1  21:51      2.42    0.91    1.00
  BR1_05               CONDUIT      1.22     1  23:19      3.51    2.26    1.00
  BR1_06               CONDUIT      0.45     1  23:05      1.28    4.58    1.00
  BR1_07               CONDUIT      0.43     1  22:47      1.23    0.95    1.00
  BR1_08               CONDUIT      0.44     1  22:51      2.22    1.00    1.00
  BR1_09               CONDUIT      0.44     1  22:51      2.23    1.00    1.00
  BR1_10               CONDUIT      0.24     2  07:19      1.36    0.55    1.00
  BR1_L11              CONDUIT      0.24     1  23:01      1.73    0.85    1.00
  CULVERT_01           CONDUIT     10.66     2  00:31      6.03    0.76    1.00
  CULVERT_03           CONDUIT      8.89     2  01:23      5.38   16.93    0.88
  MT_01                CHANNEL     15.84     2  00:29      1.80    0.10    0.30
  MT_02                CHANNEL      5.69     2  07:44      0.42    0.01    0.52
  MT_03                CONDUIT      5.11     2  03:49      4.68    1.48    0.95
  MT_04                CONDUIT      3.38     4  02:39      2.92    0.91    1.00
  MT_05                CONDUIT      3.36     4  02:39      3.20    1.33    1.00
  MT_06                CONDUIT      2.94     2  07:22      2.75    1.29    1.00
  MT_07                CONDUIT      1.07     1  23:17      1.97    1.59    1.00
  MT_08                CONDUIT      1.07     1  23:17      1.97    1.56    1.00
  MT_09                CONDUIT      1.07     1  23:17      3.07    0.71    1.00
  MT_10                CONDUIT      1.07     1  23:17      4.52    0.68    1.00
  MT_11                CONDUIT      1.16     1  23:16      3.46    2.87    1.00
  MT_12                CONDUIT      1.12     1  23:15      3.20    4.46    1.00
  MT_13                CONDUIT      1.11     1  23:16      3.19    0.99    1.00
  MT_14                CONDUIT      1.11     1  23:15      3.19    3.06    1.00
  OVERLAND_01          CHANNEL     14.58     2  00:30      0.37    0.00    0.12
  OVERLAND_01B         CHANNEL      0.00     0  00:00      0.00    0.00    0.00
  OVERLAND_02          CHANNEL     10.40     2  02:47      8.87    0.01    0.06
  OVERLAND_03          CHANNEL      0.00     0  00:00      0.00    0.00    0.29
  OVERLAND_03B         CHANNEL      8.89     2  01:30      0.28    0.00    0.23
  OVERLAND_06          CHANNEL     26.14     2  00:00      1.38    0.00    0.38
  OVERLAND_07          CHANNEL     39.26     2  11:30      0.33    0.01    0.47
  OVERLAND_BR11_01     CHANNEL     19.97     2  00:29      0.11    0.00    0.42
  OVERLAND_BR11_02     CHANNEL     20.16     2  00:26      0.73    0.01    0.13
  OVERLAND_BR11_03     CHANNEL     21.57     2  00:02      0.86    0.06    0.33
  OVERLAND_BR1_05      CHANNEL     34.06     2  00:09      8.41    0.02    0.22
  OVERLAND_BR1_MT      CHANNEL      2.28     2  00:24      0.02    0.00    0.41
  OVERLAND_LEAVING1    CHANNEL      1.67     2  00:04      0.47    0.00    0.08
  OVERLAND_LEAVING2    CHANNEL     11.97     2  00:00      2.61    0.00    0.10
  OVERLAND_LEAVING3    CHANNEL      3.24     2  00:27      0.62    0.00    0.06
  OVERLAND_LEAVING4    CHANNEL      1.72     2  00:00      0.91    0.00    0.11
  OVERLAND_MT_06       CHANNEL      0.00     0  00:00      0.00    0.00    0.25
  OVERLAND_MT_11       CHANNEL     10.70     2  00:05      0.10    0.00    0.37
  PELTIER              CONDUIT     30.40     2  00:31      1.20    0.02    0.15
  O_ACD72_02           ORIFICE      1.05     3  15:50                          
  O_ACD72_04           ORIFICE      0.65     2  05:40                          
  O_ACD72_04B          ORIFICE      0.68     3  13:45                          
  O_ACD72_04_2         ORIFICE      1.42     2  00:15                          
  O_ACD72_05           ORIFICE      1.52     4  03:06                          
  O_ACD72_06           ORIFICE      0.94     1  19:26                          
  O_ACD72_07           ORIFICE      0.33     2  07:19                          
  O_ACD72_08           ORIFICE      0.27     1  22:59                          
  O_ACD72_09           ORIFICE      1.47     3  22:23                          
  O_ACD72_10           ORIFICE      0.79     1  21:52                          
  O_ACD72_11           ORIFICE      1.12     1  23:15                          
  O_ACD72_12A          ORIFICE      0.16     3  09:03                          
  O_ACD72_12B          ORIFICE      0.34     3  16:37                          
  O_ACD72_14           ORIFICE      0.42     1  19:50                          
  O_ACD72_15A          ORIFICE      1.06     1  23:27                          
  O_ACD72_15B          ORIFICE      2.72     1  23:25                          
  O_ACD72_16           ORIFICE      0.78     1  22:49                          
  O_ACD72_17           ORIFICE      0.29     2  03:23                          
  
  
  ***************************
  Flow Classification Summary
  ***************************
  
  -------------------------------------------------------------------------------------
                      Adjusted    ---------- Fraction of Time in Flow Class ---------- 
                       /Actual         Up    Down  Sub   Sup   Up    Down  Norm  Inlet 
  Conduit               Length    Dry  Dry   Dry   Crit  Crit  Crit  Crit  Ltd   Ctrl  
  -------------------------------------------------------------------------------------
  BR11_01                 1.00   0.01  0.00  0.00  0.99  0.00  0.00  0.00  0.99  0.00
  BR11_02                 1.00   0.01  0.00  0.00  0.99  0.00  0.00  0.00  0.00  0.00
  BR11_03                 1.00   0.01  0.00  0.00  0.99  0.00  0.00  0.00  0.00  0.00
  BR11_04                 1.00   0.01  0.00  0.00  0.99  0.00  0.00  0.00  0.48  0.00
  BR11_05                 1.00   0.00  0.00  0.00  1.00  0.00  0.00  0.00  0.02  0.00
  BR11_06                 1.00   0.00  0.02  0.00  0.98  0.00  0.00  0.00  0.58  0.00
  BR11_07                 1.00   0.02  0.00  0.00  0.98  0.00  0.00  0.00  0.02  0.00
  BR11_08                 1.00   0.01  0.00  0.00  0.99  0.00  0.00  0.00  0.61  0.00
  BR11_09                 1.00   0.01  0.00  0.00  0.99  0.00  0.00  0.00  0.55  0.00
  BR11_10                 1.00   0.01  0.00  0.00  0.99  0.00  0.00  0.00  0.58  0.00
  BR11_11                 1.00   0.00  0.00  0.00  1.00  0.00  0.00  0.00  0.64  0.00
  BR11_L10                1.00   0.01  0.01  0.00  0.98  0.00  0.00  0.00  0.65  0.00
  BR11_L2                 1.00   0.00  0.00  0.00  1.00  0.00  0.00  0.00  0.54  0.00
  BR11_L4A_01             1.00   0.00  0.00  0.00  1.00  0.00  0.00  0.00  0.64  0.00
  BR11_L4_02              1.00   0.00  0.00  0.00  1.00  0.00  0.00  0.00  0.66  0.00
  BR1_01                  1.00   0.00  0.00  0.00  1.00  0.00  0.00  0.00  0.64  0.00
  BR1_02                  1.00   0.00  0.00  0.00  0.99  0.00  0.00  0.00  0.67  0.00
  BR1_03                  1.00   0.00  0.00  0.00  0.99  0.00  0.00  0.00  0.00  0.00
  BR1_03B                 1.00   0.00  0.00  0.00  1.00  0.00  0.00  0.00  0.67  0.00
  BR1_04                  1.00   0.00  0.00  0.00  1.00  0.00  0.00  0.00  0.69  0.00
  BR1_05                  1.00   0.00  0.00  0.00  1.00  0.00  0.00  0.00  0.00  0.00
  BR1_06                  1.00   0.00  0.00  0.00  1.00  0.00  0.00  0.00  0.00  0.00
  BR1_07                  1.00   0.01  0.00  0.00  0.99  0.00  0.00  0.00  0.68  0.00
  BR1_08                  1.00   0.01  0.00  0.00  0.99  0.00  0.00  0.00  0.72  0.00
  BR1_09                  1.00   0.01  0.00  0.00  0.99  0.00  0.00  0.00  0.64  0.00
  BR1_10                  1.00   0.00  0.00  0.00  1.00  0.00  0.00  0.00  0.73  0.00
  BR1_L11                 1.00   0.00  0.00  0.00  1.00  0.00  0.00  0.00  0.92  0.00
  CULVERT_01              1.00   0.00  0.00  0.00  0.94  0.00  0.00  0.06  0.88  0.00
  CULVERT_03              1.00   0.11  0.00  0.00  0.00  0.00  0.00  0.89  0.00  0.00
  MT_01                   1.00   0.01  0.00  0.00  0.99  0.00  0.00  0.00  0.00  0.00
  MT_02                   1.00   0.01  0.00  0.00  0.99  0.00  0.00  0.00  0.91  0.00
  MT_03                   1.00   0.01  0.00  0.00  0.99  0.00  0.00  0.00  0.00  0.00
  MT_04                   1.00   0.01  0.01  0.00  0.99  0.00  0.00  0.00  0.67  0.00
  MT_05                   1.00   0.01  0.00  0.00  0.99  0.00  0.00  0.00  0.00  0.00
  MT_06                   1.00   0.01  0.00  0.00  0.99  0.00  0.00  0.00  0.66  0.00
  MT_07                   1.00   0.01  0.00  0.00  0.99  0.00  0.00  0.00  0.20  0.00
  MT_08                   1.00   0.01  0.00  0.00  0.99  0.00  0.00  0.00  0.61  0.00
  MT_09                   1.00   0.01  0.00  0.00  0.99  0.00  0.00  0.00  0.69  0.00
  MT_10                   1.00   0.01  0.00  0.00  0.33  0.66  0.00  0.00  0.89  0.00
  MT_11                   1.00   0.00  0.00  0.00  1.00  0.00  0.00  0.00  0.00  0.00
  MT_12                   1.00   0.00  0.00  0.00  0.99  0.00  0.00  0.00  0.36  0.00
  MT_13                   1.00   0.01  0.00  0.00  0.99  0.00  0.00  0.00  0.90  0.00
  MT_14                   1.00   0.00  0.00  0.00  1.00  0.00  0.00  0.00  0.00  0.00
  OVERLAND_01             1.00   0.95  0.00  0.00  0.00  0.00  0.05  0.00  0.00  0.00
  OVERLAND_01B            1.50   1.00  0.00  0.00  0.00  0.00  0.00  0.00  0.00  0.00
  OVERLAND_02             1.00   0.74  0.00  0.00  0.00  0.00  0.00  0.26  0.00  0.00
  OVERLAND_03            19.18   0.96  0.04  0.00  0.00  0.00  0.00  0.00  0.00  0.00
  OVERLAND_03B            1.00   0.00  0.06  0.00  0.94  0.00  0.00  0.00  0.39  0.00
  OVERLAND_06             3.81   0.75  0.00  0.00  0.25  0.00  0.00  0.00  0.50  0.00
  OVERLAND_07             1.00   0.00  0.89  0.00  0.04  0.00  0.07  0.00  0.00  0.00
  OVERLAND_BR11_01        1.00   0.00  0.24  0.00  0.76  0.00  0.00  0.00  0.76  0.00
  OVERLAND_BR11_02        1.00   0.24  0.00  0.00  0.76  0.00  0.00  0.00  0.00  0.00
  OVERLAND_BR11_03        1.00   0.23  0.50  0.00  0.27  0.00  0.00  0.00  0.75  0.00
  OVERLAND_BR1_05         1.00   0.83  0.00  0.00  0.03  0.00  0.00  0.14  0.00  0.00
  OVERLAND_BR1_MT         1.00   0.00  0.95  0.00  0.05  0.00  0.00  0.00  0.73  0.00
  OVERLAND_LEAVING1       1.00   0.98  0.00  0.00  0.02  0.00  0.00  0.00  0.71  0.00
  OVERLAND_LEAVING2       2.21   0.90  0.00  0.00  0.09  0.00  0.00  0.00  0.00  0.00
  OVERLAND_LEAVING3       1.00   0.78  0.00  0.00  0.22  0.00  0.00  0.00  0.00  0.00
  OVERLAND_LEAVING4       1.00   0.89  0.00  0.00  0.11  0.00  0.00  0.00  0.00  0.00
  OVERLAND_MT_06          1.00   0.00  1.00  0.00  0.00  0.00  0.00  0.00  0.00  0.00
  OVERLAND_MT_11          1.00   0.00  0.92  0.00  0.08  0.00  0.00  0.00  0.74  0.00
  PELTIER                 1.00   0.02  0.00  0.00  0.97  0.00  0.00  0.01  0.00  0.00
  
  
  *************************
  Conduit Surcharge Summary
  *************************
  
  ----------------------------------------------------------------------------
                                                           Hours        Hours 
                         --------- Hours Full --------   Above Full   Capacity
  Conduit                Both Ends  Upstream  Dnstream   Normal Flow   Limited
  ----------------------------------------------------------------------------
  BR11_01                     0.01      0.01     63.53      0.01         0.01
  BR11_02                     0.01     56.71      0.01     53.61         0.01
  BR11_03                    56.71     67.73     56.71     74.57        56.71
  BR11_04                    66.59     66.61     67.73     64.87        64.75
  BR11_05                    66.18     66.20     66.61     65.43        65.35
  BR11_06                    63.19     63.19     66.20     40.59        41.06
  BR11_07                    61.93     61.93     63.19     42.41        44.82
  BR11_08                    59.98     59.98     61.93      2.32         2.34
  BR11_09                    59.38     59.38     59.98      2.31         2.36
  BR11_10                    57.50     57.50     59.38      2.25         2.25
  BR11_11                    57.36     57.36     57.50      4.17         3.89
  BR11_L10                   57.40     57.40     57.92      4.51         0.01
  BR11_L2                    72.29     72.29     84.68     67.63        67.63
  BR11_L4A_01                58.49     58.49     71.83     31.86        31.95
  BR11_L4_02                 56.47     56.47     58.72      6.28         0.01
  BR1_01                     56.17     56.17     67.88     51.39        51.39
  BR1_02                     54.72     54.72     56.17     39.50        39.46
  BR1_03                     51.78     51.88     52.62      6.43         5.06
  BR1_03B                    52.62     52.62     54.72     37.76        37.83
  BR1_04                     50.03     50.03     51.88      0.01         0.01
  BR1_05                     50.63     54.57     51.12     29.78        25.43
  BR1_06                     54.53     54.53     54.57     32.13        25.67
  BR1_07                     46.55     46.55     54.53      0.01         0.02
  BR1_08                     45.44     45.44     47.61      0.01         0.01
  BR1_09                     43.62     43.62     45.44      0.01         0.01
  BR1_10                     43.05     43.05     43.62      0.01         0.01
  BR1_L11                     5.92      5.92     43.75      0.01         0.01
  CULVERT_01                  8.25      8.25     16.75      0.01         1.74
  CULVERT_03                  0.01      6.09      0.01     10.00         0.01
  MT_03                       0.01     58.82      0.01     56.19         0.01
  MT_04                      50.97     50.97     58.82      0.01         0.01
  MT_05                      50.92     55.36     51.21     57.12        50.57
  MT_06                      52.84     52.84     55.36     49.99        49.65
  MT_07                      54.71     54.90     55.65     15.63        15.03
  MT_08                      54.34     54.39     54.90     15.58        15.18
  MT_09                      51.16     51.16     55.25      0.01         0.01
  MT_10                      13.57     13.57     51.16      0.01         0.01
  MT_11                      13.57     27.63     13.57     27.09        13.57
  MT_12                      26.78     26.78     27.63     14.52        14.57
  MT_13                      13.89     13.89     26.78      0.01         0.01
  MT_14                      13.70     13.70     13.89     10.14        10.16
  

  Analysis begun on:  Tue Jun 23 20:46:55 2026
  Analysis ended on:  Tue Jun 23 20:47:00 2026
  Total elapsed time: 00:00:05