
  EPA STORM WATER MANAGEMENT MODEL - VERSION 5.2 (Build 5.2.4)
  ------------------------------------------------------------

  Scenario Run :  SCSDIMUH 
  
  *************
  Element Count
  *************
  Number of rain gages ...... 1
  Number of subcatchments ... 23
  Number of nodes ........... 6
  Number of links ........... 5
  Number of pollutants ...... 0
  Number of land uses ....... 0
  
  
  ****************
  Raingage Summary
  ****************
                                                      Data       Recording
  Name                 Data Source                    Type       Interval 
  ------------------------------------------------------------------------
  GAGE500YEAR          500YEAR                        INTENSITY   60 min.
  
  
  ********************
  Subcatchment Summary
  ********************
  Name                       Area     Width   %Imperv    %Slope Rain Gage            Outlet              
  -----------------------------------------------------------------------------------------------------------
  45                         1.07    500.00      0.00    1.0000 GAGE500YEAR          C                   
  47.5                       0.50    500.00      0.00    1.0000 GAGE500YEAR          B                   
  50                         0.69    500.00      0.00    1.0000 GAGE500YEAR          B                   
  52.5                       1.41    500.00      0.00    1.0000 GAGE500YEAR          B                   
  55                         0.58    500.00      0.00    1.0000 GAGE500YEAR          C                   
  57.5                       0.79    500.00      0.00    1.0000 GAGE500YEAR          C                   
  60                         1.33    500.00      0.00    1.0000 GAGE500YEAR          C                   
  62.5                       1.20    500.00      0.00    1.0000 GAGE500YEAR          B                   
  65                         1.18    500.00      0.00    1.0000 GAGE500YEAR          B                   
  67.6                       0.39    500.00      0.00    1.0000 GAGE500YEAR          B                   
  70                         0.31    500.00      0.00    1.0000 GAGE500YEAR          B                   
  72.5                       0.96    500.00      0.00    1.0000 GAGE500YEAR          B                   
  75                         1.29    500.00      0.00    1.0000 GAGE500YEAR          B                   
  77.5                       3.22    500.00      0.00    1.0000 GAGE500YEAR          B                   
  80                         2.30    500.00      0.00    1.0000 GAGE500YEAR          B                   
  82.5                       1.90    500.00      0.00    1.0000 GAGE500YEAR          B                   
  85                         1.08    500.00      0.00    1.0000 GAGE500YEAR          B                   
  87.5                       2.43    500.00      0.00    1.0000 GAGE500YEAR          B                   
  90                         7.27    500.00      0.00    1.0000 GAGE500YEAR          B                   
  92.5                       6.54    500.00      0.00    1.0000 GAGE500YEAR          B                   
  95                         8.13    200.00      0.00    1.0000 GAGE500YEAR          G                   
  96.5                       3.62    600.00      0.00    1.0000 GAGE500YEAR          C                   
  98                        11.68    600.00      0.00    1.0000 GAGE500YEAR          A                   
  
  
  ************
  Node Summary
  ************
                                           Invert      Max.    Ponded    External
  Name                 Type                 Elev.     Depth      Area    Inflow  
  -------------------------------------------------------------------------------
  A                    JUNCTION              1.10     20.00       0.0    Yes
  B                    JUNCTION              9.00     20.00       0.0    Yes
  C                    JUNCTION              8.00      6.00       0.0    Yes
  E                    JUNCTION              0.50      4.00       0.0
  G                    JUNCTION              3.00      5.00       0.0    Yes
  OUTLET               OUTFALL               0.00      0.30       0.0
  
  
  ************
  Link Summary
  ************
  Name             From Node        To Node          Type            Length    %Slope Roughness
  ---------------------------------------------------------------------------------------------
  A                A                E                CONDUIT          220.0    0.2727    0.0150
  B                G                A                CONDUIT          182.8    1.0396    0.0150
  C                B                C                CONDUIT          505.0    0.1980    0.0240
  D                C                G                CONDUIT          263.3    1.8996    0.0240
  F                E                OUTLET           CONDUIT          255.2    0.1959    0.0150
  
  
  *********************
  Cross Section Summary
  *********************
                                        Full     Full     Hyd.     Max.   No. of     Full
  Conduit          Shape               Depth     Area     Rad.    Width  Barrels     Flow
  ---------------------------------------------------------------------------------------
  A                CIRCULAR             0.30     0.07     0.07     0.30        1     0.07
  B                CIRCULAR             0.30     0.07     0.07     0.30        1     0.13
  C                CIRCULAR             0.30     0.07     0.07     0.30        1     0.03
  D                CIRCULAR             0.30     0.07     0.07     0.30        1     0.11
  F                CIRCULAR             0.30     0.07     0.07     0.30        1     0.06
  
  
  *************
  Shape Summary
  *************

  Shape CUNETTE
  Area:  
              0.0021     0.0070     0.0134     0.0209     0.0293 
              0.0384     0.0483     0.0588     0.0699     0.0814 
              0.0934     0.1058     0.1185     0.1315     0.1449 
              0.1653     0.1930     0.2210     0.2494     0.2781 
              0.3071     0.3362     0.3654     0.3948     0.4242 
              0.4536     0.4829     0.5122     0.5413     0.5703 
              0.5989     0.6273     0.6554     0.6830     0.7102 
              0.7369     0.7630     0.7885     0.8132     0.8372 
              0.8603     0.8823     0.9033     0.9231     0.9415 
              0.9583     0.9733     0.9860     0.9959     1.0000 
  Hrad:  
              0.0455     0.1052     0.1583     0.2070     0.2522 
              0.2943     0.3337     0.3707     0.4056     0.4386 
              0.4697     0.4992     0.5272     0.5536     0.5787 
              0.4151     0.4690     0.5207     0.5703     0.6179 
              0.6636     0.7073     0.7492     0.7893     0.8275 
              0.8639     0.8985     0.9314     0.9623     0.9915 
              1.0188     1.0443     1.0678     1.0895     1.1091 
              1.1267     1.1422     1.1555     1.1665     1.1752 
              1.1813     1.1847     1.1852     1.1825     1.1761 
              1.1654     1.1495     1.1265     1.0918     1.0000 
  Width: 
              0.1400     0.1960     0.2375     0.2713     0.3000 
              0.3250     0.3470     0.3666     0.3842     0.4000 
              0.4143     0.4271     0.4386     0.4490     0.4582 
              0.9330     0.9474     0.9600     0.9708     0.9798 
              0.9871     0.9928     0.9968     0.9992     1.0000 
              0.9992     0.9968     0.9928     0.9871     0.9798 
              0.9708     0.9600     0.9474     0.9330     0.9165 
              0.8980     0.8773     0.8542     0.8285     0.8000 
              0.7684     0.7332     0.6940     0.6499     0.6000 
              0.5426     0.4750     0.3919     0.2800     0.0000 
  
  
  ****************
  Analysis Options
  ****************
  Flow Units ............... CFS
  Process Models:
    Rainfall/Runoff ........ YES
    RDII ................... YES
    Snowmelt ............... NO
    Groundwater ............ NO
    Flow Routing ........... YES
    Ponding Allowed ........ NO
    Water Quality .......... NO
  Infiltration Method ...... CURVE_NUMBER
  Flow Routing Method ...... DYNWAVE
  Surcharge Method ......... EXTRAN
  Starting Date ............ 07/15/1977 00:00:00
  Ending Date .............. 07/17/1977 06:00:00
  Antecedent Dry Days ...... 7.0
  Report Time Step ......... 00:01:00
  Wet Time Step ............ 00:05:00
  Dry Time Step ............ 00:05:00
  Routing Time Step ........ 10.00 sec
  Variable Time Step ....... YES
  Maximum Trials ........... 4
  Number of Threads ........ 1
  Head Tolerance ........... 0.005000 ft
  
  
  **************************        Volume         Depth
  Runoff Quantity Continuity     acre-feet        inches
  **************************     ---------       -------
  Total Precipitation ......        74.823        15.000
  Evaporation Loss .........         0.000         0.000
  Infiltration Loss ........         9.234         1.851
  Surface Runoff ...........        65.608        13.153
  Final Storage ............         0.117         0.024
  Continuity Error (%) .....        -0.181
  
  
  **************************        Volume        Volume
  Flow Routing Continuity        acre-feet      10^6 gal
  **************************     ---------     ---------
  Dry Weather Inflow .......         0.558         0.182
  Wet Weather Inflow .......        65.608        21.379
  Groundwater Inflow .......         0.000         0.000
  RDII Inflow ..............         0.000         0.000
  External Inflow ..........         0.000         0.000
  External Outflow .........         0.687         0.224
  Flooding Loss ............        65.475        21.336
  Evaporation Loss .........         0.000         0.000
  Exfiltration Loss ........         0.002         0.001
  Initial Stored Volume ....         0.000         0.000
  Final Stored Volume ......         0.002         0.001
  Continuity Error (%) .....        -0.000
  
  
  ***************************
  Time-Step Critical Elements
  ***************************
  None
  
  
  ********************************
  Highest Flow Instability Indexes
  ********************************
  All links are stable.
  
  
  *********************************
  Most Frequent Nonconverging Nodes
  *********************************
  Node OUTLET (0.19%)
  Node A (0.16%)
  Node G (0.09%)
  Node E (0.07%)
  Node C (0.01%)
  
  
  *************************
  Routing Time Step Summary
  *************************
  Minimum Time Step           :    10.00 sec
  Average Time Step           :    10.00 sec
  Maximum Time Step           :    10.00 sec
  % of Time in Steady State   :     0.00
  Average Iterations per Step :     2.02
  % of Steps Not Converging   :     0.19
  Time Step Frequencies       :
     10.000 -  1.585 sec      :   100.00 %
      1.585 -  0.251 sec      :     0.00 %
      0.251 -  0.040 sec      :     0.00 %
      0.040 -  0.006 sec      :     0.00 %
      0.006 -  0.001 sec      :     0.00 %
  
  
  ***************************
  Subcatchment Runoff Summary
  ***************************
  
  ------------------------------------------------------------------------------------------------------------------------------
                            Total      Total      Total      Total     Imperv       Perv      Total       Total     Peak  Runoff
                           Precip      Runon       Evap      Infil     Runoff     Runoff     Runoff      Runoff   Runoff   Coeff
  Subcatchment                 in         in         in         in         in         in         in    10^6 gal      CFS
  ------------------------------------------------------------------------------------------------------------------------------
  45                        15.00       0.00       0.00       8.00       0.00       7.04       7.04        0.20    12.22   0.470
  47.5                      15.00       0.00       0.00       7.15       0.00       7.91       7.91        0.11     6.09   0.527
  50                        15.00       0.00       0.00       6.91       0.00       8.14       8.14        0.15     8.50   0.543
  52.5                      15.00       0.00       0.00       6.95       0.00       8.09       8.09        0.31    17.32   0.539
  55                        15.00       0.00       0.00       6.05       0.00       9.01       9.01        0.14     7.52   0.601
  57.5                      15.00       0.00       0.00       5.82       0.00       9.24       9.24        0.20    10.46   0.616
  60                        15.00       0.00       0.00       5.72       0.00       9.32       9.32        0.34    17.59   0.621
  62.5                      15.00       0.00       0.00       5.26       0.00       9.78       9.78        0.32    16.25   0.652
  65                        15.00       0.00       0.00       4.87       0.00      10.17      10.17        0.33    16.28   0.678
  67.6                      15.00       0.00       0.00       4.02       0.00      11.04      11.04        0.12     5.45   0.736
  70                        15.00       0.00       0.00       3.66       0.00      11.41      11.41        0.10     4.40   0.761
  72.5                      15.00       0.00       0.00       3.63       0.00      11.42      11.42        0.30    13.82   0.761
  75                        15.00       0.00       0.00       3.33       0.00      11.71      11.71        0.41    18.55   0.781
  77.5                      15.00       0.00       0.00       2.90       0.00      12.12      12.12        1.06    44.32   0.808
  80                        15.00       0.00       0.00       2.50       0.00      12.53      12.53        0.78    33.01   0.835
  82.5                      15.00       0.00       0.00       2.12       0.00      12.91      12.91        0.66    27.75   0.861
  85                        15.00       0.00       0.00       1.76       0.00      13.29      13.29        0.39    16.14   0.886
  87.5                      15.00       0.00       0.00       1.43       0.00      13.60      13.60        0.90    35.61   0.907
  90                        15.00       0.00       0.00       1.11       0.00      13.89      13.89        2.74    89.95   0.926
  92.5                      15.00       0.00       0.00       0.81       0.00      14.19      14.19        2.52    84.42   0.946
  95                        15.00       0.00       0.00       0.53       0.00      14.39      14.39        3.18    64.20   0.960
  96.5                      15.00       0.00       0.00       0.36       0.00      14.67      14.67        1.44    53.32   0.978
  98                        15.00       0.00       0.00       0.20       0.00      14.78      14.78        4.69   135.94   0.986
  
  
  ******************
  Node Depth Summary
  ******************
  
  ---------------------------------------------------------------------------------
                                 Average  Maximum  Maximum  Time of Max    Reported
                                   Depth    Depth      HGL   Occurrence   Max Depth
  Node                 Type         Feet     Feet     Feet  days hr:min        Feet
  ---------------------------------------------------------------------------------
  A                    JUNCTION     9.07    20.00    21.10     0  02:01       20.00
  B                    JUNCTION    11.16    20.00    29.00     0  02:00       20.00
  C                    JUNCTION     4.45     6.00    14.00     0  02:00        6.00
  E                    JUNCTION     3.55     4.00     4.50     0  02:00        4.00
  G                    JUNCTION     4.91     5.00     8.00     0  02:00        5.00
  OUTLET               OUTFALL      0.23     0.23     0.23     0  02:03        0.23
  
  
  *******************
  Node Inflow Summary
  *******************
  
  -------------------------------------------------------------------------------------------------
                                  Maximum  Maximum                  Lateral       Total        Flow
                                  Lateral    Total  Time of Max      Inflow      Inflow     Balance
                                   Inflow   Inflow   Occurrence      Volume      Volume       Error
  Node                 Type           CFS      CFS  days hr:min    10^6 gal    10^6 gal     Percent
  -------------------------------------------------------------------------------------------------
  A                    JUNCTION    135.97   135.97     0  03:00        4.73        4.81       0.002
  B                    JUNCTION    437.90   437.90     0  03:00        11.2        11.2       0.001
  C                    JUNCTION    101.14   101.28     0  03:00        2.37         2.5       0.007
  E                    JUNCTION      0.00     0.34     0  02:02           0       0.281       0.047
  G                    JUNCTION     64.23    64.68     0  03:00        3.22        3.49       0.004
  OUTLET               OUTFALL       0.00     0.16     0  02:03           0       0.224       0.000
  
  
  **********************
  Node Surcharge Summary
  **********************
  
  Surcharging occurs when water rises above the top of the highest conduit.
  ---------------------------------------------------------------------
                                               Max. Height   Min. Depth
                                   Hours       Above Crown    Below Rim
  Node                 Type      Surcharged           Feet         Feet
  ---------------------------------------------------------------------
  A                    JUNCTION       53.89         19.700        0.000
  B                    JUNCTION       51.99         19.700        0.000
  C                    JUNCTION       51.99          5.700        0.000
  E                    JUNCTION       53.84          3.700        0.000
  G                    JUNCTION       53.74          4.700        0.000
  
  
  *********************
  Node Flooding Summary
  *********************
  
  Flooding refers to all water that overflows a node, whether it ponds or not.
  --------------------------------------------------------------------------
                                                             Total   Maximum
                                 Maximum   Time of Max       Flood    Ponded
                        Hours       Rate    Occurrence      Volume     Depth
  Node                 Flooded       CFS   days hr:min    10^6 gal      Feet
  --------------------------------------------------------------------------
  A                       9.80    135.30      0  03:00       4.411     0.000
  B                      19.47    437.76      0  03:00      11.108     0.000
  C                      25.64    101.16      0  03:00       2.350     0.000
  E                      16.29      0.18      0  02:01       0.057     0.000
  G                      52.00     64.68      0  03:00       3.409     0.000
  
  
  ***********************
  Outfall Loading Summary
  ***********************
  
  -----------------------------------------------------------
                         Flow       Avg       Max       Total
                         Freq      Flow      Flow      Volume
  Outfall Node           Pcnt       CFS       CFS    10^6 gal
  -----------------------------------------------------------
  OUTLET                99.88      0.15      0.16       0.224
  -----------------------------------------------------------
  System                99.88      0.15      0.16       0.224
  
  
  ********************
  Link Flow Summary
  ********************
  
  -----------------------------------------------------------------------------
                                 Maximum  Time of Max   Maximum    Max/    Max/
                                  |Flow|   Occurrence   |Veloc|    Full    Full
  Link                 Type          CFS  days hr:min    ft/sec    Flow   Depth
  -----------------------------------------------------------------------------
  A                    CONDUIT      0.34     0  02:02      4.84    5.26    1.00
  B                    CONDUIT      0.33     0  02:02      4.72    2.63    1.00
  C                    CONDUIT      0.21     0  02:00      3.41    6.11    1.00
  D                    CONDUIT      0.12     0  02:02      1.66    1.10    1.00
  F                    CONDUIT      0.16     0  02:03      2.46    2.97    0.89
  
  
  ***************************
  Flow Classification Summary
  ***************************
  
  -------------------------------------------------------------------------------------
                      Adjusted    ---------- Fraction of Time in Flow Class ---------- 
                       /Actual         Up    Down  Sub   Sup   Up    Down  Norm  Inlet 
  Conduit               Length    Dry  Dry   Dry   Crit  Crit  Crit  Crit  Ltd   Ctrl  
  -------------------------------------------------------------------------------------
  A                       1.00   0.00  0.00  0.00  1.00  0.00  0.00  0.00  0.00  0.00
  B                       1.00   0.00  0.00  0.00  1.00  0.00  0.00  0.00  0.00  0.00
  C                       1.00   0.00  0.00  0.00  1.00  0.00  0.00  0.00  0.00  0.00
  D                       1.00   0.00  0.00  0.00  1.00  0.00  0.00  0.00  0.04  0.00
  F                       1.00   0.00  0.00  0.00  1.00  0.00  0.00  0.00  0.00  0.00
  
  
  *************************
  Conduit Surcharge Summary
  *************************
  
  ----------------------------------------------------------------------------
                                                           Hours        Hours 
                         --------- Hours Full --------   Above Full   Capacity
  Conduit                Both Ends  Upstream  Dnstream   Normal Flow   Limited
  ----------------------------------------------------------------------------
  A                          53.84     53.89     53.84     53.89        53.84
  B                          53.74     53.74     53.89     13.55         0.01
  C                          51.99     51.99     51.99     51.99        51.99
  D                          51.99     51.99     53.74     27.86        27.86
  F                           0.01     53.84      0.01     53.84         0.01
  

  Analysis begun on:  Tue Jun 23 20:51:10 2026
  Analysis ended on:  Tue Jun 23 20:51:10 2026
  Total elapsed time: < 1 sec