
  EPA STORM WATER MANAGEMENT MODEL - VERSION 5.2 (Build 5.2.4)
  ------------------------------------------------------------

  WARNING 04: minimum elevation drop used for Conduit 3181
  WARNING 08: elevation drop exceeds length for Conduit 3196
  WARNING 04: minimum elevation drop used for Conduit 3289
  WARNING 04: minimum elevation drop used for Conduit 3359
  WARNING 04: minimum elevation drop used for Conduit 3560
  WARNING 04: minimum elevation drop used for Conduit 3730
  WARNING 04: minimum elevation drop used for Conduit 3745
  WARNING 04: minimum elevation drop used for Conduit 4656
  WARNING 04: minimum elevation drop used for Conduit 5060
  WARNING 04: minimum elevation drop used for Conduit 23151
  WARNING 04: minimum elevation drop used for Conduit 23152
  WARNING 04: minimum elevation drop used for Conduit 23153
  WARNING 04: minimum elevation drop used for Conduit 23154
  WARNING 04: minimum elevation drop used for Conduit 23155
  WARNING 04: minimum elevation drop used for Conduit 23156
  WARNING 04: minimum elevation drop used for Conduit 33121
  WARNING 04: minimum elevation drop used for Conduit 33122
  WARNING 04: minimum elevation drop used for Conduit 33123
  WARNING 04: minimum elevation drop used for Conduit 33461
  WARNING 04: minimum elevation drop used for Conduit 33462
  WARNING 04: minimum elevation drop used for Conduit 33463
  WARNING 04: minimum elevation drop used for Conduit 33464
  WARNING 04: minimum elevation drop used for Conduit 33465
  WARNING 04: minimum elevation drop used for Conduit 33466
  WARNING 04: minimum elevation drop used for Conduit 33467
  WARNING 04: minimum elevation drop used for Conduit 33468
  WARNING 04: minimum elevation drop used for Conduit 33469
  WARNING 10: crest elevation raised to downstream invert for regulator Link OR4679-4677
  WARNING 10: crest elevation raised to downstream invert for regulator Link OR3272-3271
  WARNING 10: crest elevation raised to downstream invert for regulator Link WEIR@4632-4631
  WARNING 10: crest elevation raised to downstream invert for regulator Link WEIR@4688-4687
  WARNING 10: crest elevation raised to downstream invert for regulator Link WEIR@5098-5097
  WARNING 10: crest elevation raised to downstream invert for regulator Link WEIR@5110-5109
  WARNING 10: crest elevation raised to downstream invert for regulator Link WEIR@5120-5109
  
  ****************
  Analysis Options
  ****************
  Flow Units ............... CFS
  Process Models:
    Rainfall/Runoff ........ YES
    RDII ................... NO
    Snowmelt ............... NO
    Groundwater ............ NO
    Flow Routing ........... YES
    Ponding Allowed ........ NO
    Water Quality .......... NO
  Infiltration Method ...... HORTON
  Flow Routing Method ...... DYNWAVE
  Surcharge Method ......... EXTRAN
  Starting Date ............ 01/01/2001 00:00:00
  Ending Date .............. 01/02/2001 00:00:00
  Antecedent Dry Days ...... 0.0
  Report Time Step ......... 00:15:00
  Wet Time Step ............ 00:01:00
  Dry Time Step ............ 00:15:00
  Routing Time Step ........ 20.00 sec
  Variable Time Step ....... YES
  Maximum Trials ........... 8
  Number of Threads ........ 1
  Head Tolerance ........... 0.005000 ft
  
  
  **************************        Volume         Depth
  Runoff Quantity Continuity     acre-feet        inches
  **************************     ---------       -------
  Total Precipitation ......     63760.016         9.457
  Evaporation Loss .........         0.000         0.000
  Infiltration Loss ........     39310.840         5.831
  Surface Runoff ...........     23244.535         3.448
  Final Storage ............      1208.283         0.179
  Continuity Error (%) .....        -0.006
  
  
  **************************        Volume        Volume
  Flow Routing Continuity        acre-feet      10^6 gal
  **************************     ---------     ---------
  Dry Weather Inflow .......         0.000         0.000
  Wet Weather Inflow .......     23240.790      7573.359
  Groundwater Inflow .......         0.000         0.000
  RDII Inflow ..............         0.000         0.000
  External Inflow ..........         0.098         0.032
  External Outflow .........       737.155       240.213
  Flooding Loss ............      1762.917       574.473
  Evaporation Loss .........         0.000         0.000
  Exfiltration Loss ........         0.000         0.000
  Initial Stored Volume ....     39850.062     12985.738
  Final Stored Volume ......     60125.883     19592.917
  Continuity Error (%) .....         0.737
  
  
  *************************
  Highest Continuity Errors
  *************************
  Node N3272 (100.00%)
  Node N5098 (100.00%)
  Node N5110 (99.24%)
  Node N4632 (90.97%)
  Node N4631 (78.65%)
  
  
  ***************************
  Time-Step Critical Elements
  ***************************
  Link 3562 (15.69%)
  Link 23367 (13.88%)
  Link 3573 (10.65%)
  Link 3684 (9.67%)
  Link 3174 (7.32%)
  
  
  ********************************
  Highest Flow Instability Indexes
  ********************************
  Link WEIR@3198-3155 (72)
  Link 3198 (66)
  Link 3155 (54)
  Link WEIR@5034-5030 (34)
  Link WEIR@5060-5052 (23)
  
  
  *********************************
  Most Frequent Nonconverging Nodes
  *********************************
  Node OF1020 (0.02%)
  Node N1440 (0.01%)
  Node N5100 (0.01%)
  Node N5068 (0.01%)
  Node N5088 (0.01%)
  
  
  *************************
  Routing Time Step Summary
  *************************
  Minimum Time Step           :     0.50 sec
  Average Time Step           :     4.99 sec
  Maximum Time Step           :     8.84 sec
  % of Time in Steady State   :     0.00
  Average Iterations per Step :     2.02
  % of Steps Not Converging   :     0.02
  Time Step Frequencies       :
     20.000 -  9.564 sec      :     0.00 %
      9.564 -  4.573 sec      :    61.28 %
      4.573 -  2.187 sec      :    22.70 %
      2.187 -  1.046 sec      :    11.75 %
      1.046 -  0.500 sec      :     4.27 %
  
  
  ***************************
  Subcatchment Runoff Summary
  ***************************
  
  ------------------------------------------------------------------------------------------------------------------------------
                            Total      Total      Total      Total     Imperv       Perv      Total       Total     Peak  Runoff
                           Precip      Runon       Evap      Infil     Runoff     Runoff     Runoff      Runoff   Runoff   Coeff
  Subcatchment                 in         in         in         in         in         in         in    10^6 gal      CFS
  ------------------------------------------------------------------------------------------------------------------------------
  4698                       9.46       0.00       0.00       6.71       2.63       0.00       2.63       28.73   573.36   0.278
  4696                       9.46       0.00       0.00       6.21       3.08       0.00       3.08       47.51   831.54   0.326
  4694                       9.46       0.00       0.00       7.07       2.29       0.00       2.29       22.01   453.50   0.242
  4692                       9.46       0.00       0.00       4.86       4.36       0.00       4.36       38.50   667.18   0.461
  4690                       9.46       0.00       0.00       5.09       4.14       0.00       4.14       56.90   974.27   0.438
  4688                       9.46       0.00       0.00       0.00       9.13       0.00       9.13      120.63  2682.83   0.966
  4686                       9.46       0.00       0.00       6.59       2.71       0.00       2.71       33.06   533.17   0.287
  4679                       9.46       0.00       0.00       8.27       1.14       0.00       1.14        2.52    57.15   0.121
  4677                       9.46       0.00       0.00       5.78       3.50       0.00       3.50       16.74   304.69   0.370
  4678                       9.46       0.00       0.00       4.61       4.53       0.00       4.53       42.06   592.90   0.479
  4676                       9.46       0.00       0.00       7.09       2.27       0.00       2.27        6.05   127.50   0.240
  4675                       9.46       0.00       0.00       7.57       1.82       0.00       1.82        4.18    91.06   0.193
  4674                       9.46       0.00       0.00       0.00       9.13       0.00       9.13       15.71   350.20   0.966
  4668                       9.46       0.00       0.00       4.68       4.56       0.00       4.56       27.81   527.03   0.482
  4666                       9.46       0.00       0.00       7.16       2.21       0.00       2.21       20.45   427.97   0.233
  4664                       9.46       0.00       0.00       6.95       2.40       0.00       2.40       11.90   238.63   0.254
  4662                       9.46       0.00       0.00       6.18       3.12       0.00       3.12       27.79   525.26   0.330
  4660                       9.46       0.00       0.00       0.54       7.55       0.02       7.57       41.45   316.69   0.801
  4658                       9.46       0.00       0.00       5.30       3.97       0.00       3.97       35.63   681.59   0.420
  4654                       9.46       0.00       0.00       5.09       4.18       0.00       4.18       48.23   959.24   0.442
  4652                       9.46       0.00       0.00       5.35       3.94       0.00       3.94      106.83  2212.09   0.417
  4650                       9.46       0.00       0.00       4.28       4.95       0.00       4.95       95.22  1878.47   0.523
  4648                       9.46       0.00       0.00       6.27       3.04       0.00       3.04       59.95  1109.61   0.321
  4647                       9.46       0.00       0.00       8.04       1.37       0.00       1.37        4.14    93.31   0.145
  4646                       9.46       0.00       0.00       5.15       4.07       0.05       4.12      197.29  3990.36   0.436
  4644                       9.46       0.00       0.00       6.68       2.67       0.00       2.67       32.94   699.70   0.283
  4642                       9.46       0.00       0.00       6.34       2.98       0.00       2.98       44.24   834.64   0.315
  4640                       9.46       0.00       0.00       6.15       3.17       0.00       3.17       33.49   682.18   0.336
  4638                       9.46       0.00       0.00       2.78       6.23       0.00       6.23       35.43   480.65   0.658
  4636                       9.46       0.00       0.00       6.06       3.26       0.00       3.26        8.20   169.30   0.344
  4634                       9.46       0.00       0.00       7.09       2.26       0.00       2.26        3.89    78.04   0.239
  4632                       9.46       0.00       0.00       0.00       9.14       0.00       9.14       72.54  1627.22   0.967
  4630                       9.46       0.00       0.00       6.18       3.14       0.00       3.14        2.82    59.01   0.332
  4628                       9.46       0.00       0.00       3.38       5.72       0.00       5.72        8.87   134.82   0.605
  4626                       9.46       0.00       0.00       3.07       5.85       0.00       5.85       42.13   473.97   0.619
  4624                       9.46       0.00       0.00       0.00       8.63       0.00       8.63        5.78    61.81   0.912
  4622                       9.46       0.00       0.00       4.40       4.79       0.00       4.79       14.37   238.31   0.506
  4620                       9.46       0.00       0.00       0.00       9.14       0.00       9.14      565.32 12706.41   0.967
  4618                       9.46       0.00       0.00       1.30       7.50       0.05       7.55       14.72   182.41   0.798
  4616                       9.46       0.00       0.00       1.90       6.96       0.00       6.96        9.52   112.19   0.736
  4614                       9.46       0.00       0.00       0.00       9.26       0.00       9.26        4.71   107.31   0.979
  3198                       9.46       0.00       0.00       5.12       3.95       0.08       4.04       12.76   168.37   0.427
  3156                       9.46       0.00       0.00       7.84       1.45       0.10       1.55       15.12   300.16   0.164
  3170                       9.46       0.00       0.00       6.15       2.98       0.00       2.99       82.70   803.51   0.316
  3174                       9.46       0.00       0.00       6.15       3.13       0.00       3.13       26.80   448.33   0.331
  3168                       9.46       0.00       0.00       5.25       3.84       0.10       3.95        7.53   111.05   0.417
  3162                       9.46       0.00       0.00       5.85       3.30       0.09       3.40        2.29    36.39   0.359
  3164                       9.46       0.00       0.00       8.54       0.82       0.08       0.90        1.08    25.81   0.095
  3186                       9.46       0.00       0.00       8.04       1.36       0.00       1.36       12.78   273.00   0.144
  3182                       9.46       0.00       0.00       8.04       1.35       0.00       1.35       21.60   382.37   0.142
  3178                       9.46       0.00       0.00       3.18       5.70       0.13       5.83       32.50   419.25   0.616
  3132                       9.46       0.00       0.00       5.16       3.92       0.04       3.95       16.00   188.50   0.418
  3136                       9.46       0.00       0.00       7.52       1.80       0.05       1.85       11.45   216.70   0.196
  3144                       9.46       0.00       0.00       7.49       1.79       0.08       1.87       12.85   224.62   0.198
  3148                       9.46       0.00       0.00       6.55       2.66       0.07       2.73       10.90   159.30   0.288
  3152                       9.46       0.00       0.00       5.71       3.35       0.25       3.60        3.50    71.57   0.380
  3160                       9.46       0.00       0.00       6.02       3.13       0.13       3.26       17.79   295.14   0.344
  3192                       9.46       0.00       0.00       6.53       2.68       0.09       2.78        8.62   145.52   0.294
  3194                       9.46       0.00       0.00       6.97       2.24       0.12       2.36        4.95    86.12   0.250
  3196                       9.46       0.00       0.00       6.07       3.12       0.07       3.19       16.25   254.34   0.337
  3050                       9.46       0.00       0.00       7.54       1.79       0.03       1.82       10.03   175.53   0.192
  3045                       9.46       0.00       0.00       7.06       2.26       0.03       2.30       11.30   224.92   0.243
  3040                       9.46       0.00       0.00       5.46       3.56       0.22       3.78       21.92   354.51   0.400
  3035                       9.46       0.00       0.00       6.99       2.24       0.10       2.35       12.45   215.33   0.248
  3030                       9.46       0.00       0.00       4.65       4.36       0.08       4.43       62.60   759.92   0.469
  3025                       9.46       0.00       0.00       5.63       3.44       0.05       3.48       50.10   525.14   0.368
  3300                       9.46       0.00       0.00       6.57       2.67       0.05       2.71       18.37   284.42   0.287
  3299                       9.46       0.00       0.00       7.06       2.22       0.03       2.25        4.44    65.83   0.238
  3298                       9.46       0.00       0.00       7.03       2.21       0.06       2.27        3.03    42.33   0.240
  3297                       9.46       0.00       0.00       8.83       0.55       0.06       0.61        1.18    25.81   0.064
  3295                       9.46       0.00       0.00       5.60       3.56       0.07       3.63       11.20   176.35   0.384
  3293                       9.46       0.00       0.00       7.09       2.21       0.00       2.21        4.38    61.78   0.234
  3291                       9.46       0.00       0.00       8.51       0.90       0.00       0.90        1.89    36.76   0.096
  3289                       9.46       0.00       0.00       5.12       4.00       0.08       4.08        5.31    80.11   0.431
  3296                       9.46       0.00       0.00       7.99       1.36       0.05       1.40       18.20   356.91   0.148
  3283                       9.46       0.00       0.00       1.22       7.57       0.20       7.77       21.92   361.13   0.822
  3294                       9.46       0.00       0.00       6.13       3.12       0.01       3.14       35.19   564.98   0.332
  3292                       9.46       0.00       0.00       6.15       3.11       0.00       3.11       12.20   184.52   0.329
  3290                       9.46       0.00       0.00       6.36       2.84       0.00       2.84        2.94    32.77   0.300
  3288                       9.46       0.00       0.00       6.84       2.48       0.00       2.48        4.16    68.30   0.262
  3287                       9.46       0.00       0.00       6.15       3.18       0.00       3.18       10.44   215.17   0.336
  3286                       9.46       0.00       0.00       6.62       2.66       0.00       2.66       37.56   562.17   0.282
  3284                       9.46       0.00       0.00       7.05       2.28       0.00       2.28        4.34    72.47   0.241
  3282                       9.46       0.00       0.00       1.28       7.52       0.02       7.54      137.96  1645.81   0.797
  3281                       9.46       0.00       0.00       4.69       4.37       0.03       4.40       43.12   525.32   0.465
  3280                       9.46       0.00       0.00       4.19       4.85       0.06       4.91       22.95   314.52   0.520
  3278                       9.46       0.00       0.00       6.61       2.71       0.01       2.72       19.59   375.07   0.288
  3276                       9.46       0.00       0.00       4.71       4.41       0.02       4.43       14.38   195.19   0.468
  3274                       9.46       0.00       0.00       6.95       2.32       0.05       2.37       28.06   448.23   0.250
  3272                       9.46       0.00       0.00       4.26       4.86       0.00       4.86       34.26   480.53   0.514
  3270                       9.46       0.00       0.00       6.81       2.46       0.00       2.46        7.14    91.79   0.260
  3268                       9.46       0.00       0.00       1.25       7.20       0.00       7.20       20.86   177.22   0.761
  3267                       9.46       0.00       0.00       5.67       3.49       0.00       3.49       13.15   159.06   0.369
  3266                       9.46       0.00       0.00       7.55       1.81       0.01       1.82       25.54   504.31   0.193
  3264                       9.46       0.00       0.00       4.32       4.71       0.08       4.78       35.91   481.48   0.506
  3262                       9.46       0.00       0.00       5.11       4.06       0.00       4.06       37.90   518.44   0.429
  3260                       9.46       0.00       0.00       5.64       3.50       0.04       3.53       32.23   397.04   0.374
  3258                       9.46       0.00       0.00       6.14       3.10       0.00       3.10       46.00   658.81   0.328
  3256                       9.46       0.00       0.00       5.61       3.56       0.07       3.63       28.08   429.38   0.383
  3254                       9.46       0.00       0.00       5.16       3.94       0.05       3.98       66.70   834.92   0.421
  3252                       9.46       0.00       0.00       7.01       2.23       0.08       2.32       42.22   693.16   0.245
  3250                       9.46       0.00       0.00       5.67       3.57       0.00       3.57       16.73   269.63   0.378
  3248                       9.46       0.00       0.00       7.05       2.23       0.04       2.28       26.94   435.48   0.241
  3246                       9.46       0.00       0.00       8.47       0.91       0.04       0.95       11.72   264.56   0.101
  3244                       9.46       0.00       0.00       6.59       2.63       0.03       2.66       42.71   545.76   0.282
  5124                       9.46       0.00       0.00       2.84       6.17       0.00       6.17       13.63   182.63   0.652
  5122                       9.46       0.00       0.00       6.15       3.13       0.00       3.13        6.51   107.96   0.331
  5120                       9.46       0.00       0.00       0.00       9.25       0.00       9.25       10.12   230.73   0.979
  5114                       9.46       0.00       0.00       6.27       3.06       0.00       3.06       16.09   328.62   0.323
  5112                       9.46       0.00       0.00       5.83       3.48       0.00       3.48        2.47    49.37   0.368
  5110                       9.46       0.00       0.00       0.00       9.25       0.00       9.25        1.73    39.48   0.978
  5108                       9.46       0.00       0.00       6.24       3.08       0.00       3.08       15.27   310.12   0.326
  5104                       9.46       0.00       0.00       5.69       3.60       0.00       3.60       22.70   450.85   0.381
  5102                       9.46       0.00       0.00       6.94       2.41       0.00       2.41       29.84   611.39   0.255
  5100                       9.46       0.00       0.00       0.00       9.25       0.00       9.25       89.65  2044.36   0.978
  5098                       9.46       0.00       0.00       0.00       9.26       0.00       9.26        0.65    14.90   0.979
  5096                       9.46       0.00       0.00       7.15       2.22       0.00       2.22        3.18    66.87   0.234
  5094                       9.46       0.00       0.00       6.52       2.83       0.00       2.83        1.82    38.96   0.299
  5092                       9.46       0.00       0.00       6.98       2.37       0.00       2.37       17.16   339.98   0.251
  5090                       9.46       0.00       0.00       5.43       3.81       0.00       3.81       18.67   313.99   0.403
  5088                       9.46       0.00       0.00       0.00       9.28       0.00       9.28       13.57   308.49   0.981
  5086                       9.46       0.00       0.00       5.11       4.14       0.00       4.14       36.45   673.59   0.438
  5084                       9.46       0.00       0.00       7.57       1.83       0.00       1.83        5.43   120.98   0.193
  5074                       9.46       0.00       0.00       6.03       3.27       0.00       3.27       22.75   436.82   0.346
  5072                       9.46       0.00       0.00       7.41       1.95       0.00       1.95       22.96   428.53   0.206
  5070                       9.46       0.00       0.00       5.49       3.75       0.00       3.75       85.15  1378.80   0.397
  5068                       9.46       0.00       0.00       0.00       9.26       0.00       9.26       39.39   897.80   0.979
  5064                       9.46       0.00       0.00       6.94       2.42       0.00       2.42       25.64   533.74   0.255
  5060                       9.46       0.00       0.00       6.15       3.13       0.00       3.13      109.40  1840.44   0.331
  5056                       9.46       0.00       0.00       8.04       1.36       0.00       1.36       49.09  1034.53   0.144
  5054                       9.46       0.00       0.00       7.05       2.30       0.00       2.30       25.37   505.35   0.243
  5052                       9.46       0.00       0.00       7.32       2.02       0.00       2.02       34.97   560.28   0.213
  5050                       9.46       0.00       0.00       7.34       1.99       0.01       2.00       36.93   619.86   0.212
  5049                       9.46       0.00       0.00       0.00       8.49       0.00       8.49       80.63   755.57   0.898
  5046                       9.46       0.00       0.00       7.41       1.93       0.00       1.93       38.98   642.44   0.204
  5044                       9.46       0.00       0.00       5.20       4.01       0.00       4.01       16.39   259.90   0.424
  5042                       9.46       0.00       0.00       6.53       2.80       0.00       2.80       15.46   306.14   0.296
  5038                       9.46       0.00       0.00       6.56       2.66       0.06       2.72       20.03   299.28   0.288
  5034                       9.46       0.00       0.00       6.21       2.96       0.00       2.96       21.29   225.60   0.313
  5030                       9.46       0.00       0.00       6.60       2.68       0.00       2.68        9.51   138.89   0.283
  5026                       9.46       0.00       0.00       7.57       1.80       0.00       1.80        9.96   177.01   0.190
  5022                       9.46       0.00       0.00       7.57       1.82       0.00       1.82       25.65   531.82   0.192
  5018                       9.46       0.00       0.00       8.04       1.37       0.00       1.37        4.74   104.94   0.145
  5016                       9.46       0.00       0.00       8.02       1.36       0.01       1.38        7.08   152.43   0.146
  5012                       9.46       0.00       0.00       8.04       1.38       0.00       1.38       21.51   490.46   0.145
  5014                       9.46       0.00       0.00       8.51       0.92       0.00       0.92        7.53   173.65   0.097
  5010                       9.46       0.00       0.00       8.03       1.37       0.01       1.38       24.43   562.91   0.146
  1460                       9.46       0.00       0.00       7.37       2.02       0.00       2.02        3.26    74.22   0.214
  1001                       9.46       0.00       0.00       0.00       9.30       0.00       9.30      189.71  4301.48   0.984
  1002                       9.46       0.00       0.00       0.00       9.30       0.00       9.30       18.76   425.39   0.984
  1003                       9.46       0.00       0.00       0.00       9.30       0.00       9.30      258.93  5870.92   0.984
  1004                       9.46       0.00       0.00       0.00       9.30       0.00       9.30        1.01    22.91   0.984
  1005                       9.46       0.00       0.00       0.00       9.30       0.00       9.30       51.15  1159.85   0.984
  1006                       9.46       0.00       0.00       4.73       4.53       0.00       4.53       13.56   270.11   0.479
  1007                       9.46       0.00       0.00       5.67       3.61       0.00       3.61       21.77   419.41   0.382
  1008                       9.46       0.00       0.00       4.62       4.53       0.11       4.64       11.87   241.71   0.491
  1009                       9.46       0.00       0.00       5.76       3.54       0.00       3.54        3.92    77.96   0.374
  1010                       9.46       0.00       0.00       8.04       1.37       0.00       1.37        2.21    48.82   0.145
  1011                       9.46       0.00       0.00       4.73       4.39       0.00       4.39       18.44   234.31   0.464
  1012                       9.46       0.00       0.00       7.57       1.82       0.00       1.82        7.95   173.75   0.193
  1013                       9.46       0.00       0.00       6.14       2.98       0.00       2.99       43.04   418.02   0.316
  1014                       9.46       0.00       0.00       7.09       2.27       0.00       2.27       11.65   238.25   0.240
  1015                       9.46       0.00       0.00       6.15       2.95       0.00       2.95       60.48   551.02   0.312
  1016                       9.46       0.00       0.00       5.20       4.03       0.00       4.03       28.66   485.86   0.426
  1017                       9.46       0.00       0.00       6.15       3.09       0.00       3.09       17.28   234.34   0.326
  1018                       9.46       0.00       0.00       6.62       2.57       0.00       2.57       71.60   711.20   0.271
  1019                       9.46       0.00       0.00       6.15       3.14       0.00       3.14       21.96   375.41   0.332
  1020                       9.46       0.00       0.00       6.15       2.97       0.00       2.97       42.08   394.54   0.314
  1021                       9.46       0.00       0.00       6.62       2.62       0.00       2.62       22.85   272.01   0.277
  1022                       9.46       0.00       0.00       0.00       9.25       0.00       9.25       15.64   356.53   0.979
  1023                       9.46       0.00       0.00       0.00       9.25       0.00       9.25       18.65   425.53   0.978
  1024                       9.46       0.00       0.00       6.90       2.29       0.00       2.30       25.03   236.46   0.243
  1025                       9.46       0.00       0.00       7.09       2.18       0.00       2.18       10.18   122.24   0.231
  1026                       9.46       0.00       0.00       6.15       2.96       0.00       2.96       60.37   556.02   0.313
  1027                       9.46       0.00       0.00       8.50       0.92       0.00       0.92        7.06   158.23   0.098
  1028                       9.46       0.00       0.00       0.00       9.36       0.00       9.36        3.12    70.30   0.990
  1029                       9.46       0.00       0.00       0.00       9.36       0.00       9.36       45.02  1015.22   0.989
  1030                       9.46       0.00       0.00       0.00       9.22       0.00       9.22       11.74   268.60   0.975
  1031                       9.46       0.00       0.00       8.06       1.35       0.00       1.35       29.67   647.08   0.143
  1032                       9.46       0.00       0.00       8.22       1.20       0.00       1.20        7.19   159.98   0.127
  1033                       9.46       0.00       0.00       5.99       3.25       0.00       3.25        5.49    77.36   0.343
  1034                       9.46       0.00       0.00       8.22       1.20       0.00       1.20        6.89   157.03   0.127
  1035                       9.46       0.00       0.00       8.55       0.88       0.00       0.88        3.05    69.97   0.093
  1036                       9.46       0.00       0.00       8.52       0.90       0.00       0.90        2.97    65.81   0.096
  1037                       9.46       0.00       0.00       7.10       2.26       0.00       2.26        3.49    72.30   0.239
  1038                       9.46       0.00       0.00       7.21       2.15       0.00       2.15        1.99    39.74   0.228
  1039                       9.46       0.00       0.00       6.35       2.84       0.00       2.84       25.23   274.92   0.301
  1041                       9.46       0.00       0.00       6.48       2.77       0.00       2.77       16.33   217.70   0.293
  1043                       9.46       0.00       0.00       6.43       2.85       0.00       2.85        9.12   143.48   0.302
  1044                       9.46       0.00       0.00       6.71       2.59       0.00       2.59       10.32   165.84   0.274
  1045                       9.46       0.00       0.00       7.47       1.91       0.00       1.91        9.53   197.30   0.202
  1046                       9.46       0.00       0.00       6.98       2.36       0.00       2.36       21.39   401.26   0.250
  1047                       9.46       0.00       0.00       5.70       3.55       0.00       3.55        8.87   146.38   0.375
  1048                       9.46       0.00       0.00       6.15       3.13       0.00       3.13        4.49    75.27   0.331
  1049                       9.46       0.00       0.00       6.15       3.18       0.00       3.18        2.64    54.75   0.336
  1050                       9.46       0.00       0.00       3.78       5.48       0.00       5.48        0.93    20.91   0.580
  1051                       9.46       0.00       0.00       6.30       3.00       0.00       3.00        5.68   100.10   0.317
  1052                       9.46       0.00       0.00       7.22       2.16       0.00       2.16        4.79   102.09   0.228
  1053                       9.46       0.00       0.00       7.31       2.06       0.00       2.06        5.61   117.42   0.218
  1054                       9.46       0.00       0.00       6.62       2.71       0.00       2.71        2.58    48.80   0.286
  1055                       9.46       0.00       0.00       8.04       1.37       0.00       1.37        3.69    79.89   0.144
  1056                       9.46       0.00       0.00       6.18       3.10       0.00       3.10        6.38   102.65   0.328
  1057                       9.46       0.00       0.00       7.21       2.14       0.00       2.14        8.01   144.00   0.226
  1058                       9.46       0.00       0.00       3.31       5.72       0.00       5.72        4.96    65.03   0.604
  1059                       9.46       0.00       0.00       7.22       2.16       0.00       2.16        1.95    42.24   0.228
  1060                       9.46       0.00       0.00       7.72       1.67       0.00       1.67        2.88    62.01   0.177
  1061                       9.46       0.00       0.00       7.05       2.30       0.00       2.30        7.47   145.10   0.243
  1062                       9.46       0.00       0.00       7.57       1.82       0.00       1.82        4.56    96.96   0.192
  2020                       9.46       0.00       0.00       8.51       0.90       0.00       0.90       13.68   263.84   0.096
  2018                       9.46       0.00       0.00       8.04       1.34       0.00       1.34        4.45    75.15   0.142
  2016                       9.46       0.00       0.00       8.98       0.46       0.00       0.46        9.15   208.05   0.048
  2014                       9.46       0.00       0.00       8.98       0.46       0.00       0.46        4.37   103.28   0.049
  2012                       9.46       0.00       0.00       8.96       0.45       0.03       0.48       18.13   374.32   0.051
  2186                       9.46       0.00       0.00       8.32       1.09       0.00       1.09       10.04   219.33   0.116
  2184                       9.46       0.00       0.00       8.00       1.40       0.00       1.40        7.66   154.54   0.148
  2180                       9.46       0.00       0.00       8.51       0.91       0.00       0.91       22.86   466.24   0.096
  2176                       9.46       0.00       0.00       8.70       0.73       0.00       0.73        5.04   114.87   0.078
  2174                       9.46       0.00       0.00       2.15       6.60       0.21       6.81       95.55  1320.37   0.720
  2158                       9.46       0.00       0.00       8.90       0.46       0.09       0.54       19.86   432.54   0.057
  2154                       9.46       0.00       0.00       8.89       0.55       0.00       0.55       12.78   289.19   0.058
  2150                       9.46       0.00       0.00       8.26       1.16       0.00       1.16       15.11   326.79   0.122
  2146                       9.46       0.00       0.00       7.92       1.47       0.00       1.47       95.73  1718.11   0.155
  2142                       9.46       0.00       0.00       8.24       1.17       0.00       1.17       12.89   258.16   0.124
  2138                       9.46       0.00       0.00       8.03       1.37       0.00       1.37       10.36   222.59   0.145
  2134                       9.46       0.00       0.00       6.73       2.60       0.00       2.60       45.42   879.04   0.275
  2130                       9.46       0.00       0.00       8.98       0.46       0.00       0.46       17.72   399.58   0.048
  2100                       9.46       0.00       0.00       0.00       9.12       0.00       9.12     1135.16 24981.74   0.965
  2228                       9.46       0.00       0.00       8.98       0.46       0.00       0.46        7.49   162.59   0.048
  2224                       9.46       0.00       0.00       8.51       0.91       0.00       0.91       36.86   734.78   0.096
  2220                       9.46       0.00       0.00       7.09       2.26       0.00       2.26       19.15   386.23   0.239
  2232                       9.46       0.00       0.00       6.97       2.27       0.12       2.39       15.06   309.93   0.253
  2236                       9.46       0.00       0.00       8.50       0.91       0.01       0.92       13.68   311.96   0.097
  2240                       9.46       0.00       0.00       1.51       7.25       0.06       7.32        9.55   112.02   0.774
  2244                       9.46       0.00       0.00       6.89       2.27       0.20       2.48       22.34   478.93   0.262
  2252                       9.46       0.00       0.00       6.75       2.50       0.10       2.60       14.66   318.46   0.275
  2256                       9.46       0.00       0.00       6.63       2.70       0.00       2.70       10.44   200.41   0.285
  2260                       9.46       0.00       0.00       6.32       2.89       0.12       3.00        6.22   124.74   0.318
  2264                       9.46       0.00       0.00       4.75       4.37       0.12       4.49        8.68   158.06   0.474
  
  
  ******************
  Node Depth Summary
  ******************
  
  ---------------------------------------------------------------------------------
                                 Average  Maximum  Maximum  Time of Max    Reported
                                   Depth    Depth      HGL   Occurrence   Max Depth
  Node                 Type         Feet     Feet     Feet  days hr:min        Feet
  ---------------------------------------------------------------------------------
  N1009                JUNCTION     0.89     2.91   151.91     0  12:43        2.90
  N1010                JUNCTION     0.59     2.11   143.00     0  12:36        2.05
  N1012                JUNCTION     1.13     4.36   152.27     0  12:30        4.36
  N1014                JUNCTION     1.43     5.27   147.27     0  12:51        5.22
  N1016                JUNCTION     1.77     5.78   136.99     0  12:34        5.66
  N1017                JUNCTION     2.96     8.00   126.54     0  12:44        8.00
  N1019                JUNCTION     1.86     5.93   130.55     0  12:36        5.81
  N1020                JUNCTION     2.39     5.77   114.77     0  13:01        5.77
  N1023                JUNCTION     0.90     3.50   140.50     0  12:00        3.50
  N1027                JUNCTION     0.82     3.04   126.71     0  12:33        2.99
  N1028                JUNCTION     1.05     2.00   124.00     0  11:30        2.00
  N1029                JUNCTION     3.24     3.50   125.50     0  03:42        3.50
  N1030                JUNCTION     1.40     1.50   126.10     0  03:01        1.50
  N2013                JUNCTION     1.42     1.96   100.06     0  15:08        1.96
  N2014                JUNCTION     1.34     3.09   111.09     0  14:26        3.09
  N2016                JUNCTION     2.00     4.67   115.67     0  13:14        4.67
  N2018                JUNCTION     0.38     1.56   119.56     0  12:35        1.51
  N2134                JUNCTION     3.77     6.41   123.41     0  13:44        6.41
  N2142                JUNCTION     0.62     2.20   133.26     0  12:30        2.19
  N2153                JUNCTION     0.82     2.17   106.77     0  13:03        2.16
  N2154                JUNCTION     1.70     4.14   112.04     0  12:45        4.14
  N2180                JUNCTION     1.18     3.78   105.78     0  13:05        3.75
  N2184                JUNCTION     0.36     1.62   112.62     0  12:34        1.57
  N2186                JUNCTION     0.39     1.87   117.37     0  12:32        1.84
  N2220                JUNCTION     1.44     4.79   102.99     0  12:58        4.78
  N2224                JUNCTION     1.23     4.18   109.56     0  12:52        4.16
  N2228                JUNCTION     0.47     1.67   120.74     0  12:49        1.67
  N3030                JUNCTION     0.10     0.41   109.02     0  12:31        0.40
  N3040                JUNCTION     0.05     0.22   119.98     0  12:30        0.22
  N3155                JUNCTION     2.80     4.78   120.78     0  12:45        4.78
  N3156                JUNCTION     0.47     2.33   122.10     0  12:30        2.33
  N3161                JUNCTION     0.71     0.99   118.99     0  12:30        0.99
  N3162                JUNCTION     3.51     4.00   119.00     0  11:21        4.00
  N3164                JUNCTION     0.28     1.33   120.75     0  12:30        1.33
  N3168                JUNCTION     0.41     1.50   127.50     0  12:30        1.50
  N3174                JUNCTION     2.42     4.09   124.48     0  18:04        4.09
  N3178                JUNCTION     0.04     0.13   115.13     0  12:54        0.13
  N3181                JUNCTION     1.39     4.01   119.01     0  12:52        4.00
  N3182                JUNCTION     0.07     0.33   121.33     0  12:32        0.32
  N3186                JUNCTION     1.35     5.10   129.10     0  12:32        5.04
  N3196                JUNCTION     0.24     1.09   120.52     0  12:43        1.09
  N3198                JUNCTION     2.22     4.13   120.79     0  12:45        4.12
  N3246                JUNCTION     0.75     3.49   118.15     0  12:30        3.48
  N3250                JUNCTION     0.74     3.04   107.30     0  12:31        3.02
  N3252                JUNCTION     1.93     4.97   103.97     0  12:31        4.93
  N3256                JUNCTION     0.61     2.56   127.43     0  12:31        2.55
  N3258                JUNCTION     5.76     8.00   106.00     0  12:26        8.00
  N3262                JUNCTION     2.18     7.69   115.01     0  12:53        7.65
  N3266                JUNCTION     0.09     0.33   110.33     0  12:31        0.32
  N3267                JUNCTION     1.77     4.62   139.55     0  13:08        4.61
  N3268                JUNCTION     0.04     0.11   134.65     0  13:00        0.11
  N3270                JUNCTION     1.11     3.04   140.86     0  13:13        3.04
  N3271                JUNCTION     0.00     0.00   141.22     0  00:00        0.00
  N3272                JUNCTION     4.77     8.65   139.42     1  00:00        8.65
  N3274                JUNCTION     1.19     4.39   109.39     0  12:32        4.31
  N3281                JUNCTION     0.81     2.85   117.85     0  12:30        2.84
  N3287                JUNCTION     3.72     4.50   129.50     0  11:00        4.50
  N32871               JUNCTION     0.88     1.43   129.43     0  11:08        1.42
  N3289                JUNCTION     1.32     2.06   130.06     0  12:30        2.04
  N32891               JUNCTION     0.86     1.45   129.45     0  12:32        1.40
  N3291                JUNCTION     1.02     2.01   132.77     0  12:42        2.01
  N3292                JUNCTION     0.55     2.25   125.98     0  12:30        2.24
  N3293                JUNCTION     1.73     2.66   132.81     0  12:45        2.66
  N3295                JUNCTION     3.23     3.54   129.54     0  07:46        3.54
  N3297                JUNCTION     1.57     2.93   126.93     0  12:38        2.89
  N32971               JUNCTION     1.06     2.34   126.87     0  12:40        2.31
  N3300                JUNCTION     1.71     2.92   132.63     0  19:33        2.92
  N33001               JUNCTION     2.67     4.18   132.63     0  19:33        4.18
  N3375                JUNCTION     0.28     0.51   109.06     0  13:35        0.51
  N4614                JUNCTION     1.76     2.00   181.00     0  07:32        2.00
  N4621                JUNCTION     0.02     0.11   136.27     0  12:34        0.11
  N4622                JUNCTION     0.64     2.63   142.63     0  12:33        2.58
  N4624                JUNCTION     0.10     0.35   137.35     0  12:40        0.35
  N4626                JUNCTION     2.12     4.66   138.05     0  12:59        4.66
  N4631                JUNCTION     1.04     2.78   136.63     1  00:00        2.78
  N4632                JUNCTION     6.77    11.63   136.63     1  00:00       11.63
  N4642                JUNCTION     2.86     3.00   131.39     0  00:00        3.00
  N4651                JUNCTION     0.07     0.09   135.18     0  07:29        0.09
  N4654                JUNCTION     2.92     9.50   144.50     0  12:25        9.49
  N4656                JUNCTION     3.51    10.00   145.00     0  12:21       10.00
  N4658                JUNCTION     1.15     4.76   145.05     0  12:57        4.54
  N4660                JUNCTION     0.93     5.56   149.56     0  12:30        5.55
  N4673                JUNCTION     3.36     5.01   133.01     0  13:49        5.01
  N4679                JUNCTION     5.49     6.00   136.00     0  19:09        6.00
  N4684                JUNCTION     0.30     0.62   141.05     0  12:18        0.62
  N4685                JUNCTION     3.58     6.98   149.87     0  12:17        6.96
  N4686                JUNCTION     4.43     8.00   150.00     0  12:17        8.00
  N4687                JUNCTION     2.93     4.01   154.26     0  11:10        4.00
  N4688                JUNCTION     9.06    11.25   154.25     0  11:09       11.25
  N5014                JUNCTION     2.48     7.06   108.51     0  12:33        6.99
  N5021                JUNCTION     1.68     5.23   108.73     0  12:34        5.14
  N5022                JUNCTION     1.40     5.30   114.36     0  12:41        5.27
  N5023                JUNCTION     1.54     2.54   130.26     0  18:49        2.54
  N5026                JUNCTION     0.30     0.69   130.26     0  18:52        0.69
  N5030                JUNCTION     3.65     6.17   131.79     0  16:18        6.17
  N5034                JUNCTION     4.11     6.72   131.79     0  16:18        6.72
  N5038                JUNCTION     0.04     0.19   137.56     0  12:31        0.19
  N5042                JUNCTION     0.53     2.35   142.35     0  12:30        2.35
  N5043                JUNCTION     2.18     6.77   125.32     0  12:33        6.67
  N5044                JUNCTION     0.78     3.50   119.01     0  12:21        3.50
  N5046                JUNCTION     0.08     0.32   116.28     0  12:32        0.31
  N5050                JUNCTION     4.65    10.00   114.00     0  13:06       10.00
  N5052                JUNCTION     5.31    10.00   115.00     0  13:41       10.00
  N5060                JUNCTION     5.31    10.00   115.00     0  13:41       10.00
  N5063                JUNCTION     0.90     2.93   119.93     0  13:02        2.91
  N5068                JUNCTION     2.27     4.54   119.93     0  13:05        4.52
  N5082                JUNCTION     6.31     8.09   125.09     0  12:26        8.01
  N5083                JUNCTION     8.15    10.00   125.00     0  12:24       10.00
  N5084                JUNCTION     1.63     4.50   115.50     0  12:26        4.50
  N5085                JUNCTION     2.62     5.76   133.20     0  13:12        5.74
  N5086                JUNCTION     1.19     4.00   138.00     0  12:05        4.00
  N5087                JUNCTION     6.60    10.00   128.60     0  12:53       10.00
  N5088                JUNCTION     4.47     7.64   128.64     0  12:54        7.63
  N5097                JUNCTION     0.00     0.00   130.90     0  00:00        0.00
  N5098                JUNCTION     2.21     3.80   118.77     1  00:00        3.80
  N5100                JUNCTION     0.05     0.29   132.29     0  12:30        0.29
  N5109                JUNCTION     0.12     0.57   158.57     1  00:00        0.57
  N5110                JUNCTION    13.98    23.57   158.57     1  00:00       23.57
  N5120                JUNCTION     0.05     0.23   179.23     0  12:30        0.23
  OF1020               OUTFALL     10.63    11.00    98.00     1  00:00       11.00
  N1004                STORAGE      3.52     4.59   149.59     1  00:00        4.59
  N1022                STORAGE      4.80     5.36   132.36     1  00:00        5.36
  N1070                STORAGE      2.81     3.56   101.06     0  17:58        3.56
  N1080                STORAGE      3.48     4.89   103.89     0  16:10        4.89
  N1100                STORAGE      5.63     7.55   107.55     0  14:48        7.55
  N1110                STORAGE      5.55     7.47   109.57     1  00:00        7.47
  N1118                STORAGE      5.83     7.78   109.88     1  00:00        7.78
  N1120                STORAGE      6.26     8.22   109.91     1  00:00        8.22
  N1130                STORAGE      5.05     6.99   109.99     1  00:00        6.99
  N1140                STORAGE      6.92     9.29   112.38     1  00:00        9.29
  N1150                STORAGE      5.46     7.43   112.43     1  00:00        7.43
  N1160                STORAGE      5.31     7.24   112.88     1  00:00        7.24
  N1164                STORAGE      4.61     6.53   112.91     1  00:00        6.53
  N1168                STORAGE      3.56     5.36   112.78     1  00:00        5.36
  N1170                STORAGE      6.33     8.13   113.18     1  00:00        8.13
  N1180                STORAGE      5.95     7.81   113.78     1  00:00        7.81
  N1190                STORAGE      4.11     5.83   113.83     1  00:00        5.83
  N1200                STORAGE      3.55     4.63   115.63     0  13:28        4.63
  N1210                STORAGE      5.39     7.00   118.50     0  21:31        7.00
  N1220                STORAGE      4.62     6.44   119.44     0  19:50        6.44
  N1222                STORAGE      7.33     9.16   119.48     0  19:47        9.16
  N1228                STORAGE      7.71    10.10   120.50     0  19:05       10.10
  N1230                STORAGE      3.70     6.00   120.51     0  19:05        6.00
  N1240                STORAGE      1.90     3.51   120.51     0  19:05        3.51
  N1250                STORAGE      2.28     3.55   122.55     0  14:32        3.55
  N1260                STORAGE      1.02     1.92   124.02     0  15:12        1.92
  N1270                STORAGE      1.80     2.92   125.42     0  13:29        2.92
  N1278                STORAGE      4.11     6.91   129.78     0  13:28        6.90
  N1280                STORAGE      2.82     5.35   130.01     0  13:26        5.32
  N1284                STORAGE      1.11     3.41   130.23     0  13:28        2.94
  N1288                STORAGE      1.23     3.29   130.32     0  13:29        3.06
  N1290                STORAGE      2.63     4.49   130.49     0  13:18        4.46
  N1295                STORAGE      1.34     3.16   131.12     0  12:49        3.15
  N1300                STORAGE      2.30     4.95   132.93     0  12:47        4.94
  N1310                STORAGE      3.87     5.87   133.87     0  12:42        5.86
  N1316                STORAGE      4.16     6.19   133.90     0  12:41        6.18
  N1318                STORAGE      4.78     7.01   134.07     0  12:39        7.00
  N1320                STORAGE      4.34     6.54   134.10     0  12:39        6.53
  N1330                STORAGE      4.00     6.33   134.33     0  12:37        6.30
  N1340                STORAGE      3.61     5.90   134.33     0  12:37        5.87
  N1346                STORAGE      4.38     8.80   137.39     0  13:11        8.80
  N1348                STORAGE      4.63     9.06   137.40     0  13:11        9.06
  N1350                STORAGE      1.84     5.18   137.40     0  13:12        5.17
  N1360                STORAGE      1.63     4.82   137.42     0  13:11        4.81
  N1370                STORAGE      3.82     6.53   137.82     0  13:08        6.51
  N1380                STORAGE      3.43     6.06   137.82     0  13:07        6.04
  N1390                STORAGE      3.29     5.88   137.84     0  13:00        5.88
  N1400                STORAGE      1.07     3.29   137.83     0  13:00        3.29
  N1405                STORAGE      1.12     3.24   137.82     0  13:00        3.24
  N1410                STORAGE      5.17     5.65   137.65     1  00:00        5.65
  N1420                STORAGE      5.12     5.62   137.67     1  00:00        5.62
  N1430                STORAGE      6.03     6.29   138.29     0  14:13        6.29
  N1440                STORAGE     10.15    10.93   143.00     0  00:00       10.49
  N1450                STORAGE      6.26     6.51   143.51     0  23:04        6.51
  N1458                STORAGE      0.02     0.06   141.06     1  00:00        0.06
  N1459                STORAGE      1.14     1.79   146.29     0  15:05        1.79
  N1460                STORAGE      1.82     2.57   146.37     0  15:02        2.57
  N2020                STORAGE      1.25     3.45   117.45     0  12:41        3.43
  N2100                STORAGE      4.33     4.72    99.82     1  00:00        4.72
  N2138                STORAGE      1.43     3.41   123.41     0  13:46        3.41
  N2146                STORAGE      8.25    10.43   130.43     1  00:00       10.43
  N2150                STORAGE      1.05     1.79   146.79     1  00:00        1.79
  N2174                STORAGE      2.53     3.25   100.35     0  13:24        3.25
  N2305                STORAGE     10.14    10.50    98.00     1  00:00       10.50
  N2310                STORAGE      8.85     9.19    98.02     1  00:00        9.19
  N2315                STORAGE      8.86     9.20    98.03     1  00:00        9.20
  N2320                STORAGE      8.42     8.74    98.06     1  00:00        8.74
  N2325                STORAGE      8.28     8.58    98.12     1  00:00        8.58
  N2336                STORAGE      8.19     8.48    98.24     1  00:00        8.48
  N2337                STORAGE      8.15     8.43    98.24     1  00:00        8.43
  N2338                STORAGE      7.92     8.21    98.25     1  00:00        8.21
  N2340                STORAGE      7.01     7.32    98.33     0  15:23        7.32
  N2345                STORAGE      6.00     6.41    98.68     0  14:36        6.41
  N2350                STORAGE      5.83     6.42    99.22     0  13:34        6.42
  N2355                STORAGE      5.69     6.06    99.34     1  00:00        6.06
  N2360                STORAGE      5.62     6.03    99.62     1  00:00        6.03
  N2365                STORAGE      5.65     6.08    99.77     1  00:00        6.08
  N3170                STORAGE      2.75     4.48   124.48     0  18:04        4.48
  N3310                STORAGE      7.20     7.59    99.82     1  00:00        7.59
  N3311                STORAGE      8.32     8.88   100.13     1  00:00        8.88
  N3312                STORAGE      8.46     9.19   100.44     1  00:00        9.19
  N3313                STORAGE      8.39     9.13   100.48     1  00:00        9.13
  N3314                STORAGE      7.75     8.52   100.56     1  00:00        8.52
  N3315                STORAGE      7.51     8.52   101.08     1  00:00        8.52
  N3316                STORAGE      7.36     8.52   101.50     1  00:00        8.52
  N3317                STORAGE      7.35     8.52   101.53     1  00:00        8.52
  N3318                STORAGE      6.79     7.97   101.56     1  00:00        7.97
  N3319                STORAGE      6.77     7.89   101.57     1  00:00        7.89
  N3320                STORAGE      7.37     8.53   101.69     1  00:00        8.53
  N3321                STORAGE      7.90     9.07   101.70     1  00:00        9.07
  N3325                STORAGE      7.99     9.18   101.78     0  23:55        9.18
  N3326                STORAGE      7.63     8.92   102.05     0  23:18        8.92
  N3327                STORAGE      7.23     8.53   102.28     0  22:17        8.53
  N3328                STORAGE      6.63     8.16   102.96     0  19:04        8.16
  N3329                STORAGE      4.98     6.23   103.49     0  15:30        6.23
  N3330                STORAGE      5.82     7.17   105.01     1  00:00        7.17
  N3331                STORAGE      6.11     7.69   106.13     1  00:00        7.69
  N3332                STORAGE      5.89     7.50   106.29     1  00:00        7.50
  N3333                STORAGE      5.74     7.31   106.35     1  00:00        7.31
  N3334                STORAGE      5.33     6.77   106.38     1  00:00        6.77
  N3335                STORAGE      5.24     6.62   106.42     1  00:00        6.62
  N3336                STORAGE      4.91     6.25   106.48     1  00:00        6.25
  N3337                STORAGE      4.87     6.20   106.48     1  00:00        6.20
  N3338                STORAGE      4.44     5.75   106.44     1  00:00        5.75
  N3339                STORAGE      4.38     5.67   106.46     1  00:00        5.67
  N3340                STORAGE      4.39     5.65   106.48     1  00:00        5.65
  N3341                STORAGE      4.35     5.61   106.48     1  00:00        5.61
  N3342                STORAGE      4.74     6.00   106.48     1  00:00        6.00
  N3343                STORAGE      4.73     5.99   106.49     1  00:00        5.99
  N3344                STORAGE      5.10     6.36   106.50     1  00:00        6.36
  N3345                STORAGE      4.96     6.22   106.55     1  00:00        6.22
  N3346                STORAGE      5.01     6.27   106.60     1  00:00        6.27
  N3347                STORAGE      4.72     5.98   106.66     1  00:00        5.98
  N3348                STORAGE      4.19     5.45   106.66     1  00:00        5.45
  N3349                STORAGE      3.82     5.07   106.66     1  00:00        5.07
  N3350                STORAGE      3.34     4.56   106.67     1  00:00        4.56
  N3351                STORAGE      3.33     4.49   106.67     1  00:00        4.49
  N3352                STORAGE      3.25     3.97   106.79     1  00:00        3.97
  N3353                STORAGE      3.00     3.65   106.95     0  19:22        3.65
  N3354                STORAGE      2.97     3.63   106.96     0  19:21        3.63
  N3355                STORAGE      2.85     3.93   108.03     0  14:39        3.93
  N3356                STORAGE      1.22     1.89   108.04     0  14:39        1.89
  N3357                STORAGE      0.81     1.61   108.30     0  13:38        1.60
  N3358                STORAGE      1.76     2.41   106.96     0  19:21        2.41
  N3359                STORAGE      1.76     2.41   106.96     0  19:20        2.41
  N3360                STORAGE      0.73     1.26   106.96     0  19:21        1.26
  N3361                STORAGE      1.19     3.34   109.89     0  12:30        3.33
  N3362                STORAGE      1.83     3.40   109.62     0  12:43        3.40
  N3364                STORAGE      1.34     2.85   109.62     0  12:46        2.85
  N3365                STORAGE      1.91     3.55   109.82     0  13:04        3.54
  N3366                STORAGE      1.88     3.56   109.88     0  13:05        3.55
  N3367                STORAGE      2.46     4.15   109.89     0  13:05        4.13
  N3368                STORAGE      1.56     3.27   109.91     0  13:05        3.26
  N3369                STORAGE      1.64     3.35   109.92     0  13:05        3.34
  N3376                STORAGE      0.61     1.15   110.65     0  13:02        1.15
  N3377                STORAGE      0.91     2.58   113.58     0  12:41        2.58
  N3378                STORAGE      1.24     2.96   114.05     0  12:43        2.96
  N3379                STORAGE      1.32     3.15   114.17     0  12:43        3.15
  N3380                STORAGE      0.54     1.50   114.20     0  12:42        1.50
  N3408                STORAGE      3.04     4.27   106.69     1  00:00        4.27
  N3409                STORAGE      3.28     4.51   106.69     1  00:00        4.51
  N3410                STORAGE      3.20     4.43   106.69     1  00:00        4.43
  N3411                STORAGE      3.53     4.76   106.69     1  00:00        4.76
  N3429                STORAGE      3.90     5.06   106.73     1  00:00        5.06
  N3430                STORAGE      3.63     4.72   107.07     0  20:46        4.72
  N3435                STORAGE      4.15     5.26   107.26     0  19:02        5.26
  N3436                STORAGE      5.87     6.99   107.28     0  19:12        6.99
  N3437                STORAGE      5.80     6.92   107.28     0  19:12        6.92
  N3438                STORAGE      3.76     4.88   107.28     0  19:12        4.88
  N3439                STORAGE      2.90     4.03   107.29     0  19:15        4.03
  N3440                STORAGE      1.70     2.69   107.29     0  19:16        2.69
  N3441                STORAGE      1.67     2.66   107.29     0  19:16        2.66
  N3442                STORAGE      1.88     2.46   107.35     0  19:27        2.46
  N3443                STORAGE      2.45     3.04   107.36     0  19:27        3.04
  N3444                STORAGE      2.82     3.41   107.36     0  19:28        3.41
  N3445                STORAGE      2.75     3.34   107.36     0  19:28        3.34
  N3446                STORAGE      3.48     4.07   107.37     0  19:29        4.07
  N3447                STORAGE      2.35     2.86   107.86     1  00:00        2.86
  N3448                STORAGE      4.80     6.84   109.74     0  12:54        6.82
  N3450                STORAGE      3.25     5.27   109.72     0  12:53        5.26
  N3454                STORAGE      3.22     6.11   110.75     0  12:53        6.08
  N3455                STORAGE      4.59     7.49   110.79     0  12:53        7.46
  N3460                STORAGE      3.30     6.20   110.80     0  12:53        6.17
  N3465                STORAGE      3.46     6.47   111.33     0  12:52        6.43
  N3466                STORAGE      2.61     5.58   111.30     0  12:52        5.54
  N3469                STORAGE      3.00     6.08   111.46     0  12:51        6.04
  N3470                STORAGE      3.18     6.29   111.62     0  12:50        6.26
  N3473                STORAGE      1.92     4.75   112.59     0  12:46        4.74
  N3475                STORAGE      2.70     5.30   117.59     0  12:40        5.27
  N3476                STORAGE      1.97     4.68   117.99     0  12:40        4.66
  N3479                STORAGE      2.56     5.42   118.24     0  12:39        5.39
  N3480                STORAGE      2.99     6.02   118.78     0  12:39        5.99
  N3485                STORAGE      1.52     2.12   119.12     1  00:00        2.12
  N3490                STORAGE      2.31     3.14   120.89     1  00:00        3.14
  N3495                STORAGE      2.86     3.94   122.59     1  00:00        3.94
  N3496                STORAGE      4.80     5.96   124.29     1  00:00        5.96
  N3499                STORAGE      4.63     5.79   124.29     1  00:00        5.79
  N3500                STORAGE      3.98     5.11   124.30     1  00:00        5.11
  N3505                STORAGE      2.39     3.33   125.33     1  00:00        3.33
  N3510                STORAGE      3.21     4.41   127.69     1  00:00        4.41
  N3511                STORAGE      2.56     3.75   127.72     1  00:00        3.75
  N3514                STORAGE      2.63     3.83   127.76     1  00:00        3.83
  N3515                STORAGE      3.07     4.20   127.96     1  00:00        4.20
  N3517                STORAGE      3.08     4.28   128.46     1  00:00        4.28
  N3520                STORAGE      3.74     5.05   129.67     1  00:00        5.05
  N3522                STORAGE      3.47     4.76   130.04     1  00:00        4.76
  N3525                STORAGE      1.95     3.10   130.05     1  00:00        3.10
  N3528                STORAGE      0.90     1.37   131.52     1  00:00        1.37
  N3529                STORAGE      3.87     4.42   131.72     1  00:00        4.42
  N3530                STORAGE      4.12     4.80   132.11     1  00:00        4.80
  N3550                STORAGE      3.83     5.91   105.91     0  14:04        5.91
  N3555                STORAGE      4.11     6.67   107.81     0  13:11        6.67
  N3556                STORAGE      3.27     5.82   107.82     0  13:11        5.81
  N3557                STORAGE      2.48     4.86   107.82     0  13:11        4.85
  N3560                STORAGE      4.60     7.25   110.21     0  13:41        7.24
  N3561                STORAGE      4.48     7.13   110.27     0  13:40        7.13
  N3562                STORAGE      4.42     7.08   110.28     0  13:40        7.08
  N3564                STORAGE      4.59     7.22   110.48     0  13:34        7.22
  N3565                STORAGE      4.08     6.68   110.49     0  13:33        6.68
  N3566                STORAGE      3.58     6.09   110.53     0  13:32        6.09
  N3567                STORAGE      3.61     6.11   110.54     0  13:32        6.11
  N3569                STORAGE      3.60     6.08   110.57     0  13:31        6.08
  N3570                STORAGE      3.31     5.76   110.58     0  13:30        5.76
  N3571                STORAGE      2.91     4.99   110.73     0  13:39        4.99
  N3572                STORAGE      3.33     5.44   110.74     0  13:38        5.44
  N3573                STORAGE      3.01     5.04   110.78     0  13:38        5.04
  N3574                STORAGE      2.33     4.15   110.74     0  13:38        4.14
  N3575                STORAGE      2.93     4.39   111.05     0  13:33        4.39
  N3580                STORAGE      2.14     3.48   111.23     0  13:25        3.47
  N3581                STORAGE      1.98     3.30   111.27     0  13:23        3.29
  N3585                STORAGE      2.05     3.36   111.32     0  13:21        3.36
  N3587                STORAGE      2.20     3.45   111.51     0  13:16        3.45
  N3590                STORAGE      2.42     3.46   111.88     0  12:39        3.45
  N3600                STORAGE      1.98     2.71   111.81     0  12:46        2.71
  N3603                STORAGE      2.88     3.64   112.12     1  00:00        3.64
  N3605                STORAGE      2.56     3.34   112.15     1  00:00        3.34
  N3610                STORAGE      2.40     3.18   112.16     1  00:00        3.18
  N3614                STORAGE      2.14     3.36   112.86     1  00:00        3.36
  N3615                STORAGE      2.00     3.21   112.86     1  00:00        3.21
  N3620                STORAGE      1.04     1.87   112.87     1  00:00        1.87
  N3650                STORAGE      3.70     4.79   106.68     1  00:00        4.79
  N3655                STORAGE      2.89     3.98   106.68     1  00:00        3.98
  N3660                STORAGE      3.72     4.74   106.68     1  00:00        4.74
  N3661                STORAGE      3.91     4.93   106.68     1  00:00        4.93
  N3664                STORAGE      3.45     4.47   106.69     1  00:00        4.47
  N3665                STORAGE      3.19     4.20   106.69     1  00:00        4.20
  N3670                STORAGE      2.36     3.57   107.35     0  13:01        3.57
  N3675                STORAGE      3.12     4.68   108.58     0  13:00        4.68
  N3680                STORAGE      2.98     4.33   108.62     0  13:00        4.32
  N3682                STORAGE      3.13     4.45   108.62     0  13:00        4.45
  N3684                STORAGE      3.09     4.68   109.34     0  15:12        4.68
  N3685                STORAGE      3.16     4.73   109.35     0  15:13        4.73
  N3690                STORAGE      2.78     4.25   109.36     0  15:12        4.25
  N3695                STORAGE      2.29     3.53   109.42     0  15:03        3.53
  N3696                STORAGE      1.97     3.12   109.49     0  14:50        3.12
  N3699                STORAGE      1.93     3.12   109.64     0  14:26        3.12
  N3700                STORAGE      2.41     3.58   109.65     0  14:25        3.58
  N3705                STORAGE      1.79     2.76   109.80     0  14:04        2.76
  N3710                STORAGE      1.55     2.38   111.44     0  13:02        2.37
  N3715                STORAGE      1.22     1.68   111.52     0  13:14        1.68
  N3716                STORAGE      1.11     1.35   111.95     1  00:00        1.35
  N3719                STORAGE      0.91     1.15   111.95     1  00:00        1.15
  N3720                STORAGE      2.98     3.53   112.73     1  00:00        3.53
  N3725                STORAGE      2.49     3.07   113.07     1  00:00        3.07
  N3730                STORAGE      2.49     3.08   113.08     1  00:00        3.08
  N3735                STORAGE      1.77     2.36   113.21     0  13:12        2.36
  N3736                STORAGE      1.12     1.77   114.59     0  13:03        1.76
  N3740                STORAGE      1.47     2.23   115.18     0  13:02        2.23
  N3741                STORAGE      1.70     2.53   115.42     0  13:02        2.53
  N3744                STORAGE      2.05     2.92   115.51     0  13:02        2.92
  N3745                STORAGE      2.10     3.01   115.60     0  13:01        3.01
  N3750                STORAGE      2.19     3.11   115.61     0  13:02        3.11
  N3755                STORAGE      1.90     2.79   115.61     0  13:02        2.79
  N3760                STORAGE      2.44     3.16   115.72     0  17:00        3.16
  N3765                STORAGE      1.95     2.73   115.73     0  17:08        2.73
  N3770                STORAGE      1.79     2.55   115.74     0  17:07        2.55
  N3775                STORAGE      2.22     2.96   115.74     0  17:04        2.96
  N3776                STORAGE      1.71     2.43   115.74     0  17:03        2.43
  N3779                STORAGE      1.48     2.33   115.90     0  13:24        2.33
  N3780                STORAGE      2.21     3.08   115.90     0  13:24        3.08
  N3785                STORAGE      1.12     1.90   115.90     0  13:24        1.90
  N3790                STORAGE      2.04     2.56   113.08     1  00:00        2.56
  N3800                STORAGE      3.13     4.04   114.66     1  00:00        4.04
  N3801                STORAGE      3.73     4.65   114.68     1  00:00        4.65
  N3804                STORAGE      3.73     4.65   114.69     1  00:00        4.65
  N3805                STORAGE      3.56     4.48   114.69     1  00:00        4.48
  N3810                STORAGE      2.10     2.93   114.73     1  00:00        2.93
  N3815                STORAGE      1.94     2.79   114.79     1  00:00        2.79
  N4620                STORAGE      4.42     5.11   132.11     1  00:00        5.11
  N4647                STORAGE      0.96     1.63   136.93     1  00:00        1.63
  N4674                STORAGE      1.59     3.01   133.01     0  13:51        3.00
  N4677                STORAGE      3.49     4.00   136.00     0  19:12        4.00
  N5400                STORAGE      3.85     4.43   100.03     1  00:00        4.43
  N5405                STORAGE      3.82     4.56   100.26     1  00:00        4.56
  N5410                STORAGE      2.19     3.02   101.12     1  00:00        3.02
  N5415                STORAGE      2.09     3.00   101.30     1  00:00        3.00
  N5420                STORAGE      2.35     3.11   101.61     0  13:57        3.11
  N5425                STORAGE      1.38     1.95   101.95     0  13:00        1.95
  N5430                STORAGE      1.89     2.84   104.04     1  00:00        2.84
  N5435                STORAGE      3.73     5.04   106.44     1  00:00        5.04
  N5440                STORAGE      4.36     5.66   106.46     1  00:00        5.66
  N5445                STORAGE      4.11     5.46   106.66     1  00:00        5.46
  N5446                STORAGE      3.91     5.26   106.67     1  00:00        5.26
  N5447                STORAGE      4.43     5.80   106.72     1  00:00        5.80
  N5448                STORAGE      4.13     5.49   106.72     1  00:00        5.49
  N5449                STORAGE      4.40     5.77   106.76     1  00:00        5.77
  N5450                STORAGE      4.40     5.76   106.76     1  00:00        5.76
  N5451                STORAGE      4.04     5.41   106.80     1  00:00        5.41
  N5453                STORAGE      4.42     5.74   107.12     1  00:00        5.74
  N5454                STORAGE      3.97     5.30   107.24     1  00:00        5.30
  N5455                STORAGE      3.63     4.80   107.34     1  00:00        4.80
  N5460                STORAGE      3.85     4.85   107.35     1  00:00        4.85
  
  
  *******************
  Node Inflow Summary
  *******************
  
  -------------------------------------------------------------------------------------------------
                                  Maximum  Maximum                  Lateral       Total        Flow
                                  Lateral    Total  Time of Max      Inflow      Inflow     Balance
                                   Inflow   Inflow   Occurrence      Volume      Volume       Error
  Node                 Type           CFS      CFS  days hr:min    10^6 gal    10^6 gal     Percent
  -------------------------------------------------------------------------------------------------
  N1009                JUNCTION     77.96    77.96     0  12:30        3.92        3.92       1.199
  N1010                JUNCTION     48.82    48.82     0  12:30        2.21        2.21       0.250
  N1012                JUNCTION    173.75   173.75     0  12:30        7.95        7.95      -0.390
  N1014                JUNCTION    238.25   447.47     0  12:30        11.6        23.5       1.174
  N1016                JUNCTION    485.86   485.86     0  12:30        28.7        28.7      -0.145
  N1017                JUNCTION    234.34   991.40     0  12:34        17.3          68       1.915
  N1019                JUNCTION    375.41   375.41     0  12:30          22          22      -0.098
  N1020                JUNCTION    394.54   394.54     0  12:30        42.1        42.1       0.535
  N1023                JUNCTION    671.65   671.65     0  12:30        30.5        30.5       0.004
  N1027                JUNCTION    158.23   158.23     0  12:30        7.06        7.06       0.151
  N1028                JUNCTION    177.56   177.56     0  12:30          10          10       0.087
  N1029                JUNCTION   1261.71  1508.15     0  12:30        59.4        84.3       0.029
  N1030                JUNCTION    572.67   572.67     0  12:30        26.6        26.6       0.115
  N2013                JUNCTION      0.00   182.09     0  14:39           0        32.9       9.318
  N2014                JUNCTION    103.28   240.32     0  13:00        4.37        33.7       6.803
  N2016                JUNCTION    208.05   429.95     0  12:30        9.15        31.3       6.698
  N2018                JUNCTION     75.15    75.15     0  12:30        4.44        4.44       0.021
  N2134                JUNCTION    879.04   879.04     0  12:30        45.4        55.7      30.023
  N2142                JUNCTION    258.16   258.16     0  12:30        12.9        12.9      -0.247
  N2153                JUNCTION      0.00   506.22     0  12:52           0        64.9       1.260
  N2154                JUNCTION    289.19   679.98     0  12:30        12.8        65.9       1.502
  N2180                JUNCTION    466.24   775.16     0  12:30        22.9        40.6       4.421
  N2184                JUNCTION    154.54   154.54     0  12:30        7.66        7.66       0.054
  N2186                JUNCTION    219.33   219.33     0  12:30          10          10      -0.089
  N2220                JUNCTION    386.23   766.66     0  12:30        19.1        62.1       1.191
  N2224                JUNCTION    734.78   800.83     0  12:30        36.9        44.1       2.519
  N2228                JUNCTION    162.59   162.59     0  12:30        7.49        7.49       3.689
  N3030                JUNCTION    759.92  1109.97     0  12:30        62.6        84.5       0.149
  N3040                JUNCTION    354.51   354.51     0  12:30        21.9        21.9       0.079
  N3155                JUNCTION      0.00   515.50     0  12:32           0        29.5      25.858
  N3156                JUNCTION    300.16   300.16     0  12:30        15.1        15.1       0.004
  N3161                JUNCTION      0.00    35.85     0  12:06           0        12.1       1.074
  N3162                JUNCTION     36.39   216.74     0  13:00        2.29        65.4       0.114
  N3164                JUNCTION     25.81    25.81     0  12:30        1.08        1.08       0.011
  N3168                JUNCTION    111.05   111.05     0  12:30        7.53        7.53       0.008
  N3174                JUNCTION    448.33   668.99     0  12:30        26.8        95.7      67.608
  N3178                JUNCTION    419.25   839.38     0  12:53        32.5        64.5       0.035
  N3181                JUNCTION      0.00   600.42     0  12:32           0        34.2       6.670
  N3182                JUNCTION    382.37   614.43     0  12:30        21.6        34.3       0.285
  N3186                JUNCTION    273.00   273.00     0  12:30        12.8        12.8       0.859
  N3196                JUNCTION    254.34   573.62     0  12:42        16.2        37.8       0.042
  N3198                JUNCTION    168.37   180.34     0  12:24        12.8        14.7      12.332
  N3246                JUNCTION    264.56   264.56     0  12:30        11.7        11.7       0.254
  N3250                JUNCTION    269.63   269.63     0  12:30        16.7        16.7       0.190
  N3252                JUNCTION    693.16   693.16     0  12:30        42.2        42.2       0.897
  N3256                JUNCTION    429.38   429.38     0  12:30        28.1        28.1       0.088
  N3258                JUNCTION    658.81   658.81     0  12:30          46          47       6.953
  N3262                JUNCTION    518.44   518.44     0  12:30        37.9        37.9       0.581
  N3266                JUNCTION    504.31   778.23     0  12:30        25.5        66.2       0.181
  N3267                JUNCTION    159.06   159.06     0  12:30        13.1        13.1       2.114
  N3268                JUNCTION    177.22   177.22     0  13:00        20.9        20.9       0.137
  N3270                JUNCTION     91.79    91.79     0  12:30        7.14        7.14       3.034
  N3271                JUNCTION      0.00     0.00     0  00:00           0           0       0.000 gal
  N3272                JUNCTION    480.53   480.53     0  12:30        34.3        34.334258516.607 gal
  N3274                JUNCTION    448.23   448.23     0  12:30        28.1        28.1       0.712
  N3281                JUNCTION    525.32   525.32     0  12:30        43.1        43.1       0.034
  N3287                JUNCTION    215.17   215.17     0  12:30        10.4        10.4       0.211
  N32871               JUNCTION      0.00    22.28     0  13:03           0        5.99       0.841
  N3289                JUNCTION     80.11   109.10     0  12:30        5.31        13.1       0.195
  N32891               JUNCTION      0.00    27.99     0  12:31           0        6.37       0.321
  N3291                JUNCTION     36.76    36.76     0  12:30        1.89        6.87       0.265
  N3292                JUNCTION    184.52   184.52     0  12:30        12.2        12.2       0.008
  N3293                JUNCTION     61.78    68.10     0  12:30        4.38        7.93       7.151
  N3295                JUNCTION    176.35   256.07     0  12:30        11.2        17.9       0.069
  N3297                JUNCTION     25.81    25.81     0  12:30        1.18        1.18       0.256
  N32971               JUNCTION      0.00    50.58     0  12:30           0        7.54       1.254
  N3300                JUNCTION    284.42   284.42     0  12:30        18.4        18.4      55.942
[...]
  5453                    1.00   0.00  0.00  0.00  1.00  0.00  0.00  0.00  0.00  0.00
  5454                    1.00   0.00  0.00  0.00  1.00  0.00  0.00  0.00  0.00  0.00
  5455                    1.00   0.00  0.00  0.00  1.00  0.00  0.00  0.00  0.00  0.00
  5456                    3.00   0.00  0.00  0.00  1.00  0.00  0.00  0.00  0.00  0.00
  5457                    3.00   0.00  0.00  0.00  1.00  0.00  0.00  0.00  0.00  0.00
  5458                    3.00   0.00  0.00  0.00  1.00  0.00  0.00  0.00  0.00  0.00
  5459                    3.00   0.00  0.00  0.00  1.00  0.00  0.00  0.00  0.00  0.00
  5460                    3.80   0.00  0.00  0.00  1.00  0.00  0.00  0.00  0.49  0.00
  13601                   6.71   0.15  0.00  0.00  0.85  0.00  0.00  0.00  0.02  0.00
  13602                   6.24   0.17  0.00  0.00  0.83  0.00  0.00  0.00  0.02  0.00
  13603                   5.50   0.22  0.00  0.00  0.78  0.00  0.00  0.00  0.00  0.00
  23151                   1.00   0.00  0.00  0.00  1.00  0.00  0.00  0.00  0.00  0.00
  23152                   1.00   0.00  0.00  0.00  1.00  0.00  0.00  0.00  0.00  0.00
  23153                   1.15   0.00  0.00  0.00  1.00  0.00  0.00  0.00  0.00  0.00
  23154                   1.00   0.00  0.00  0.00  1.00  0.00  0.00  0.00  0.00  0.00
  23155                   1.00   0.00  0.00  0.00  1.00  0.00  0.00  0.00  0.00  0.00
  23156                   1.00   0.00  0.00  0.00  1.00  0.00  0.00  0.00  0.00  0.00
  23361                   2.84   0.00  0.00  0.00  1.00  0.00  0.00  0.00  0.00  0.00
  23362                   2.84   0.00  0.00  0.00  1.00  0.00  0.00  0.00  0.00  0.00
  23363                   2.84   0.00  0.00  0.00  1.00  0.00  0.00  0.00  0.00  0.00
  23364                   2.84   0.00  0.00  0.00  1.00  0.00  0.00  0.00  0.00  0.00
  23365                   4.34   0.00  0.00  0.00  1.00  0.00  0.00  0.00  0.00  0.00
  23366                   4.34   0.00  0.00  0.00  1.00  0.00  0.00  0.00  0.00  0.00
  23367                   4.33   0.00  0.00  0.00  1.00  0.00  0.00  0.00  0.00  0.00
  23368                   4.33   0.00  0.00  0.00  1.00  0.00  0.00  0.00  0.00  0.00
  23369                   2.47   0.00  0.00  0.00  1.00  0.00  0.00  0.00  0.00  0.00
  32871                   1.00   0.00  0.13  0.00  0.87  0.00  0.00  0.00  0.56  0.00
  32891                   1.00   0.09  0.00  0.00  0.91  0.00  0.00  0.00  0.84  0.00
  32971                   1.00   0.11  0.00  0.00  0.89  0.00  0.00  0.00  0.02  0.00
  33001                   1.00   0.09  0.00  0.00  0.91  0.00  0.00  0.00  0.11  0.00
  33121                   1.71   0.00  0.00  0.00  1.00  0.00  0.00  0.00  0.00  0.00
  33122                   1.71   0.00  0.00  0.00  1.00  0.00  0.00  0.00  0.00  0.00
  33123                   1.71   0.00  0.00  0.00  1.00  0.00  0.00  0.00  0.00  0.00
  33191                   2.37   0.00  0.00  0.00  1.00  0.00  0.00  0.00  0.14  0.00
  33192                   2.44   0.49  0.00  0.00  0.49  0.00  0.00  0.02  0.00  0.00
  33193                   2.44   0.49  0.00  0.00  0.49  0.00  0.00  0.02  0.00  0.00
  33194                   2.32   0.00  0.00  0.00  1.00  0.00  0.00  0.00  0.00  0.00
  33211                   3.25   0.00  0.29  0.00  0.71  0.00  0.00  0.00  0.00  0.00
  33212                   3.24   0.00  0.22  0.00  0.78  0.00  0.00  0.00  0.00  0.00
  33213                   4.25   0.00  0.00  0.00  1.00  0.00  0.00  0.00  0.00  0.00
  33214                   3.18   0.00  0.20  0.00  0.80  0.00  0.00  0.00  0.00  0.00
  33380                   9.69   0.53  0.02  0.00  0.44  0.00  0.01  0.00  0.00  0.00
  33381                   6.30   1.00  0.00  0.00  0.00  0.00  0.00  0.00  0.00  0.00
  33382                   9.58   0.53  0.03  0.00  0.42  0.00  0.01  0.00  0.00  0.00
  33383                  10.70   0.00  0.00  0.00  1.00  0.00  0.00  0.00  0.26  0.00
  33384                  11.63   0.00  0.00  0.00  1.00  0.00  0.00  0.00  0.00  0.00
  33385                  12.02   0.00  0.00  0.00  1.00  0.00  0.00  0.00  0.00  0.00
  33386                  11.82   0.00  0.00  0.00  1.00  0.00  0.00  0.00  0.00  0.00
  33387                  11.50   0.00  0.00  0.00  1.00  0.00  0.00  0.00  0.00  0.00
  33388                  11.17   0.00  0.00  0.00  1.00  0.00  0.00  0.00  0.00  0.00
  33389                  10.82   0.00  0.00  0.00  1.00  0.00  0.00  0.00  0.00  0.00
  33411                   6.93   0.73  0.01  0.00  0.26  0.00  0.00  0.00  0.00  0.00
  33412                   8.53   0.53  0.00  0.00  0.46  0.00  0.00  0.00  0.00  0.00
  33413                  10.16   0.00  0.00  0.00  1.00  0.00  0.00  0.00  0.00  0.00
  33414                  12.20   0.00  0.00  0.00  1.00  0.00  0.00  0.00  0.00  0.00
  33415                  10.13   0.00  0.00  0.00  1.00  0.00  0.00  0.00  0.00  0.00
  33416                   8.18   0.57  0.01  0.00  0.43  0.00  0.00  0.00  0.00  0.00
  33417                   6.93   0.72  0.01  0.00  0.26  0.00  0.00  0.00  0.00  0.00
  33461                   1.00   1.00  0.00  0.00  0.00  0.00  0.00  0.00  0.00  0.00
  33462                   1.00   0.62  0.00  0.00  0.37  0.00  0.00  0.01  0.00  0.00
  33463                   1.00   0.56  0.00  0.00  0.44  0.00  0.00  0.00  0.00  0.00
  33464                   1.07   0.43  0.00  0.00  0.55  0.00  0.00  0.01  0.00  0.00
  33465                   1.15   0.00  0.00  0.00  1.00  0.00  0.00  0.00  0.00  0.00
  33466                   1.23   0.00  0.00  0.00  1.00  0.00  0.00  0.00  0.00  0.00
  33467                   1.35   0.00  0.00  0.00  1.00  0.00  0.00  0.00  0.00  0.00
  33468                   1.25   0.00  0.00  0.00  1.00  0.00  0.00  0.00  0.00  0.00
  33469                   1.00   0.55  0.00  0.00  0.45  0.00  0.00  0.00  0.00  0.00
  33481                   9.30   0.47  0.05  0.00  0.47  0.00  0.00  0.00  0.00  0.00
  33482                   9.30   0.37  0.14  0.00  0.49  0.00  0.00  0.00  0.00  0.00
  33483                   9.95   0.00  0.32  0.00  0.68  0.00  0.00  0.00  0.01  0.00
  33484                  10.49   0.00  0.00  0.00  1.00  0.00  0.00  0.00  0.05  0.00
  33485                  10.98   0.00  0.00  0.00  1.00  0.00  0.00  0.00  0.00  0.00
  33486                  11.40   0.00  0.00  0.00  1.00  0.00  0.00  0.00  0.00  0.00
  33487                  11.58   0.00  0.00  0.00  1.00  0.00  0.00  0.00  0.00  0.00
  33488                  11.08   0.00  0.00  0.00  1.00  0.00  0.00  0.00  0.00  0.00
  33489                   9.95   0.00  0.31  0.00  0.69  0.00  0.00  0.00  0.01  0.00
  33581                   1.77   0.00  0.00  0.00  1.00  0.00  0.00  0.00  0.01  0.00
  33582                   1.82   0.00  0.00  0.00  1.00  0.00  0.00  0.00  0.01  0.00
  33583                   1.00   0.00  0.00  0.00  1.00  0.00  0.00  0.00  0.01  0.00
  33681                   1.79   0.00  0.00  0.00  1.00  0.00  0.00  0.00  0.00  0.00
  33682                   1.79   0.00  0.00  0.00  1.00  0.00  0.00  0.00  0.00  0.00
  34371                   6.05   0.00  0.00  0.00  1.00  0.00  0.00  0.00  0.00  0.00
  34372                   6.05   0.00  0.00  0.00  1.00  0.00  0.00  0.00  0.00  0.00
  34373                   6.05   0.00  0.00  0.00  1.00  0.00  0.00  0.00  0.00  0.00
  34374                   6.05   0.00  0.00  0.00  1.00  0.00  0.00  0.00  0.00  0.00
  34410                   8.36   0.00  0.53  0.00  0.46  0.00  0.01  0.00  0.00  0.00
  34411                  10.60   0.00  0.53  0.00  0.46  0.00  0.01  0.00  0.00  0.00
  34412                   6.65   0.00  0.00  0.00  1.00  0.00  0.00  0.00  0.00  0.00
  34413                   6.93   0.00  0.00  0.00  1.00  0.00  0.00  0.00  0.00  0.00
  34414                   6.90   0.00  0.00  0.00  1.00  0.00  0.00  0.00  0.00  0.00
  34415                   6.87   0.00  0.00  0.00  1.00  0.00  0.00  0.00  0.00  0.00
  34416                   6.81   0.00  0.00  0.00  1.00  0.00  0.00  0.00  0.00  0.00
  34417                  11.68   0.00  0.33  0.00  0.67  0.00  0.00  0.00  0.18  0.00
  34418                  13.74   0.00  0.52  0.00  0.48  0.00  0.00  0.00  0.00  0.00
  34419                  14.97   0.00  0.54  0.00  0.45  0.00  0.01  0.00  0.00  0.00
  34431                   9.07   0.05  0.51  0.00  0.43  0.00  0.00  0.00  0.00  0.00
  34432                   9.10   0.05  0.51  0.00  0.43  0.00  0.00  0.00  0.00  0.00
  34433                   9.36   0.03  0.34  0.00  0.58  0.00  0.05  0.00  0.00  0.00
  34434                   9.86   0.01  0.03  0.00  0.95  0.00  0.00  0.00  0.00  0.00
  34435                  10.34   0.00  0.00  0.00  1.00  0.00  0.00  0.00  0.00  0.00
  34436                  10.23   0.00  0.01  0.00  0.99  0.00  0.00  0.00  0.00  0.00
  34437                   9.86   0.00  0.01  0.00  0.98  0.00  0.00  0.00  0.00  0.00
  34438                   9.86   0.00  0.02  0.00  0.97  0.00  0.00  0.00  0.00  0.00
  34439                   9.76   0.01  0.03  0.00  0.96  0.00  0.00  0.00  0.00  0.00
  34451                   5.34   0.01  0.00  0.00  0.98  0.00  0.00  0.00  0.00  0.00
  34452                   5.35   0.01  0.00  0.00  0.99  0.00  0.00  0.00  0.00  0.00
  34453                   5.63   0.00  0.00  0.00  1.00  0.00  0.00  0.00  0.00  0.00
  34454                   4.93   0.00  0.00  0.00  1.00  0.00  0.00  0.00  0.00  0.00
  34455                   5.01   0.00  0.00  0.00  1.00  0.00  0.00  0.00  0.00  0.00
  34456                   5.80   0.00  0.00  0.00  1.00  0.00  0.00  0.00  0.00  0.00
  34457                   5.54   0.00  0.00  0.00  1.00  0.00  0.00  0.00  0.00  0.00
  34458                   5.43   0.00  0.00  0.00  1.00  0.00  0.00  0.00  0.00  0.00
  34459                   5.39   0.01  0.00  0.00  0.99  0.00  0.00  0.00  0.00  0.00
  46201                   9.03   0.00  0.00  0.00  1.00  0.00  0.00  0.00  0.00  0.00
  46202                   9.03   0.00  0.00  0.00  1.00  0.00  0.00  0.00  0.00  0.00
  54461                   9.86   0.03  0.00  0.00  0.97  0.00  0.00  0.00  0.00  0.00
  54462                  10.32   0.03  0.00  0.00  0.97  0.00  0.00  0.00  0.00  0.00
  54463                  10.45   0.03  0.00  0.00  0.97  0.00  0.00  0.00  0.00  0.00
  54464                  10.13   0.03  0.00  0.00  0.97  0.00  0.00  0.00  0.00  0.00
  54465                   9.23   0.04  0.00  0.00  0.96  0.00  0.00  0.00  0.00  0.00
  54466                   8.12   0.56  0.05  0.00  0.40  0.00  0.00  0.00  0.00  0.00
  54481                   5.61   0.03  0.00  0.00  0.97  0.00  0.00  0.00  0.00  0.00
  54482                   5.98   0.02  0.00  0.00  0.98  0.00  0.00  0.00  0.00  0.00
  54483                   5.79   0.03  0.00  0.00  0.97  0.00  0.00  0.00  0.00  0.00
  54501                   4.13   0.02  0.00  0.00  0.98  0.00  0.00  0.00  0.00  0.00
  54502                   4.60   0.01  0.00  0.00  0.99  0.00  0.00  0.00  0.00  0.00
  54503                   4.10   0.02  0.00  0.00  0.98  0.00  0.00  0.00  0.00  0.00
  
  
  *************************
  Conduit Surcharge Summary
  *************************
  
  ----------------------------------------------------------------------------
                                                           Hours        Hours 
                         --------- Hours Full --------   Above Full   Capacity
  Conduit                Both Ends  Upstream  Dnstream   Normal Flow   Limited
  ----------------------------------------------------------------------------
  1016                        0.01      0.01      0.51      0.01         0.01
  1017                        0.01      0.51      0.01      0.01         0.01
  1019                        0.01      0.01      0.51      0.01         0.01
  1020                        0.01      0.01      2.50      0.01         0.01
  1023                        1.00      1.00     20.29      0.01         0.01
  1028                        3.98      3.98     21.33      0.01         0.01
  1029                       20.37     20.37     21.33      2.46         2.36
  1030                       20.98     20.98     21.83      0.12         0.01
  1226                        8.93      9.34      8.93     10.33         8.93
  1227                        8.93      9.34      8.93     10.33         8.93
  1286                        0.10      0.40      0.11      1.66         0.04
  1287                        0.11      1.15      0.11      1.82         0.06
  1318                        4.64      4.64     13.11      0.01         0.01
  1343                        4.97      4.97     13.80      3.61         3.61
  1344                        4.78      4.78     12.43      3.96         3.97
  1345                        3.27      3.27     12.70      0.63         0.63
  1390                        4.20      4.20      4.54      0.53         0.53
  1430                        0.01      0.01      0.01     23.99         0.01
  1440                       24.00     24.00     24.00     24.00        24.00
  1460                        0.01      0.01     11.59      0.01         0.01
  3162                        0.01      0.01     19.89      0.01         0.01
  3168                        0.01      0.01     19.89      0.01         0.01
  3174                        3.70      3.70     12.64      9.56         3.68
  3181                        0.01      0.62      0.01     16.34         0.01
  3246                        0.01      0.01     10.36      0.01         0.01
  3250                        0.01      0.01     11.29      0.01         0.01
  3252                        0.01      0.01     11.29      0.01         0.01
  3256                        0.01      0.01      6.86      0.01         0.01
  3258                        0.01      0.72      0.01      2.30         0.01
  3287                        0.01      0.01      3.49      0.01         0.01
  3289                        0.01      0.01      0.01     20.22         0.01
  3292                        0.01      0.01     12.30      0.01         0.01
  3379                        0.01      0.01      0.01      0.71         0.01
  3408                        4.78      4.78      7.69      0.01         0.01
  3409                        7.22      7.22      7.69      0.01         0.01
  3410                        6.51      6.51      7.69      0.01         0.01
  3411                        7.69      7.69      8.84      0.01         0.01
  3453                        0.01      0.01      0.01      1.93         0.01
  3454                        0.01      0.01      0.01      1.54         0.01
  3560                        0.01      0.01      0.01     17.55         0.01
  3564                       12.54     12.74     12.54     14.93        12.54
  3569                       13.42     13.42     15.38      0.01         0.01
  3584                        0.01      0.01      0.01     11.68         0.01
  3585                        0.01      0.01      0.01     11.68         0.01
  3613                        9.64      9.64     11.34      4.56         4.56
  3614                        9.64      9.64     11.34      4.56         4.56
  3663                        0.01      0.01      3.71      0.01         0.01
  3664                        0.01      0.01      3.71      0.01         0.01
  3684                       10.46     10.46     11.83      8.50         8.51
  3697                        0.01      0.01      0.01      1.57         0.01
  3699                        0.01      0.01      0.01      1.57         0.01
  3730                        0.01      0.01      0.01      0.32         0.01
  3745                        0.01      0.01      0.01      1.74         0.01
  3778                       11.27     11.27     11.30      0.70         0.70
  3779                       11.27     11.27     11.30      0.70         0.70
  3804                        1.98      1.98      2.06      0.01         0.01
  4614                        0.01     16.25      0.01      0.01         0.01
  4624                        0.01      0.01      8.09      0.01         0.01
  4632                        0.01      0.01      8.09      0.01         0.01
  4642                       16.15     16.15     24.00      0.01         0.01
  4656                        0.01      0.61      0.01     18.70         0.01
  4658                        0.01      0.01      0.61      0.01         0.01
  4660                        0.01      0.01      2.15      0.01         0.01
  4679                        0.01      0.01      4.84      0.01         0.01
  4684                        0.01      0.01     11.75      0.01         0.01
  4685                        0.01      0.01      0.01      0.97         0.01
  4686                       12.78     12.78     13.83      0.01         0.01
  4687                        0.01      0.01      0.76      0.01         0.01
  4688                        0.01      0.01     16.01      0.01         0.01
  5022                        0.58      0.58      0.91      0.36         0.25
  5030                        0.01      0.01      3.41      0.01         0.01
  5042                        0.01      0.01      1.63      0.01         0.01
  5044                        0.83      0.83     13.51      0.01         0.01
  5046                        0.01      0.01      0.50      0.01         0.01
  5050                        0.01      0.50      0.01      0.01         0.01
  5052                        0.01      1.41      0.01      0.01         0.01
  5060                        1.22      1.22      1.41      0.01         0.01
  5063                        0.01      0.01      7.54      0.01         0.01
  5082                        4.12     19.28      4.12     19.57         4.12
  5083                        0.01      0.01     11.60      0.01         0.01
  5084                        0.12      0.12     11.60      0.11         0.01
  5086                        1.29      1.29      1.79      0.01         0.01
  5087                       12.54     12.54     19.55      0.01         0.01
  5088                        0.01      0.01      1.91      0.01         0.01
  5110                        0.01      0.01     10.86      0.01         0.01
  5456                       23.95     23.95     24.00     16.00         0.01
  5457                       23.95     23.95     24.00     16.00         0.01
  5458                       23.95     23.95     24.00     16.00         0.01
  5459                       23.95     23.95     24.00     16.00         0.01
  23153                       0.01      0.01      0.01     19.89         0.01
  23154                       0.01      0.01      0.01     11.84         0.01
  23155                       0.01      0.01      0.01      7.86         0.01
  23365                      11.95     11.95     15.89      3.84         3.84
  23366                      11.95     11.95     15.89      3.84         3.84
  23367                      11.95     11.95     15.89      3.84         3.84
  23368                      11.95     11.95     15.89      3.84         3.84
  33121                       0.01      0.01      0.01     18.85         0.01
  33122                       0.01      0.01      0.01     18.85         0.01
  33123                       0.01      0.01      0.01     18.85         0.01
  33463                       0.01      0.01      0.01      1.94         0.01
  33464                       0.01      0.01      0.01      9.44         0.01
  33465                       0.01      0.01      0.01     10.73         0.01
  33466                       0.01      0.01      0.01     13.61         0.01
  33467                       0.01      0.01      0.01     23.88         0.01
  33468                       0.01      0.01      0.01     14.94         0.01
  33469                       0.01      0.01      0.01      3.30         0.01
  34410                       9.10      9.10     11.09      0.01         0.01
  34411                       0.01      0.01     10.14      0.01         0.01
  

  Analysis begun on:  Tue Jun 23 20:51:56 2026
  Analysis ended on:  Tue Jun 23 20:52:01 2026
  Total elapsed time: 00:00:05