
  EPA STORM WATER MANAGEMENT MODEL - VERSION 5.2 (Build 5.2.4)
  ------------------------------------------------------------

  
  ****************
  Analysis Options
  ****************
  Flow Units ............... CMS
  Process Models:
    Rainfall/Runoff ........ YES
    RDII ................... NO
    Snowmelt ............... NO
    Groundwater ............ NO
    Flow Routing ........... YES
    Ponding Allowed ........ NO
    Water Quality .......... NO
  Infiltration Method ...... HORTON
  Flow Routing Method ...... DYNWAVE
  Surcharge Method ......... EXTRAN
  Starting Date ............ 05/03/2014 00:00:00
  Ending Date .............. 05/03/2014 18:00:00
  Antecedent Dry Days ...... 0.0
  Report Time Step ......... 00:15:00
  Wet Time Step ............ 00:05:00
  Dry Time Step ............ 01:00:00
  Routing Time Step ........ 30.00 sec
  Variable Time Step ....... YES
  Maximum Trials ........... 8
  Number of Threads ........ 1
  Head Tolerance ........... 0.001524 m
  
  
  **************************        Volume         Depth
  Runoff Quantity Continuity     hectare-m            mm
  **************************     ---------       -------
  Total Precipitation ......        12.151        40.075
  Evaporation Loss .........         0.000         0.000
  Infiltration Loss ........         1.934         6.379
  Surface Runoff ...........         9.834        32.434
  Final Storage ............         0.394         1.300
  Continuity Error (%) .....        -0.092
  
  
  **************************        Volume        Volume
  Flow Routing Continuity        hectare-m      10^6 ltr
  **************************     ---------     ---------
  Dry Weather Inflow .......         0.000         0.000
  Wet Weather Inflow .......         9.835        98.350
  Groundwater Inflow .......         0.000         0.000
  RDII Inflow ..............         0.000         0.000
  External Inflow ..........        12.959       129.586
  External Outflow .........        19.592       195.925
  Flooding Loss ............         1.931        19.313
  Evaporation Loss .........         0.000         0.000
  Exfiltration Loss ........         0.000         0.000
  Initial Stored Volume ....         0.000         0.001
  Final Stored Volume ......         1.209        12.092
  Continuity Error (%) .....         0.266
  
  
  *************************
  Highest Continuity Errors
  *************************
  Node N-13 (2.46%)
  Node V-2 (-1.57%)
  Node N-15 (1.55%)
  
  
  ***************************
  Time-Step Critical Elements
  ***************************
  None
  
  
  ********************************
  Highest Flow Instability Indexes
  ********************************
  Link C-10 (29)
  Link C-9 (11)
  Link C-7 (3)
  Link C-2 (2)
  Link R-6 (2)
  
  
  *********************************
  Most Frequent Nonconverging Nodes
  *********************************
  Convergence obtained at all time steps.
  
  
  *************************
  Routing Time Step Summary
  *************************
  Minimum Time Step           :     3.08 sec
  Average Time Step           :    29.94 sec
  Maximum Time Step           :    30.00 sec
  % of Time in Steady State   :     0.00
  Average Iterations per Step :     2.03
  % of Steps Not Converging   :     0.05
  Time Step Frequencies       :
     30.000 - 13.228 sec      :    99.86 %
     13.228 -  5.833 sec      :     0.09 %
      5.833 -  2.572 sec      :     0.05 %
      2.572 -  1.134 sec      :     0.00 %
      1.134 -  0.500 sec      :     0.00 %
  
  
  ***************************
  Subcatchment Runoff Summary
  ***************************
  
  ------------------------------------------------------------------------------------------------------------------------------
                            Total      Total      Total      Total     Imperv       Perv      Total       Total     Peak  Runoff
                           Precip      Runon       Evap      Infil     Runoff     Runoff     Runoff      Runoff   Runoff   Coeff
  Subcatchment                 mm         mm         mm         mm         mm         mm         mm    10^6 ltr      CMS
  ------------------------------------------------------------------------------------------------------------------------------
  C-2                       40.08       0.00       0.00      14.16       9.21      13.88      23.09       22.63     3.86   0.576
  C-3                       40.08       0.00       0.00       5.06      28.64       5.91      34.55       27.71     5.63   0.862
  C-4                       40.08       0.00       0.00       1.06      35.49       2.95      38.43       46.12     9.70   0.959
  C-5                       40.07       0.00       0.00       2.56      10.04      27.55      37.59        1.88     0.60   0.938
  
  
  ******************
  Node Depth Summary
  ******************
  
  ---------------------------------------------------------------------------------
                                 Average  Maximum  Maximum  Time of Max    Reported
                                   Depth    Depth      HGL   Occurrence   Max Depth
  Node                 Type       Meters   Meters   Meters  days hr:min      Meters
  ---------------------------------------------------------------------------------
  N-5                  JUNCTION     0.25     0.72  2500.72     0  04:38        0.70
  N-6                  JUNCTION     0.37     1.69  2500.68     0  04:59        1.69
  N-7                  JUNCTION     0.67     2.05  2500.69     0  05:01        2.04
  N-9                  JUNCTION     0.72     2.06  2500.06     0  05:34        2.04
  N-13                 JUNCTION     0.62     1.89  2499.89     0  05:35        1.86
  N-14                 JUNCTION     0.58     1.78  2499.78     0  05:35        1.75
  N-15                 JUNCTION     0.64     1.90  2499.90     0  05:35        1.84
  DES-1                OUTFALL      0.58     0.86  2492.86     0  06:44        0.86
  DES-2                OUTFALL      0.54     0.65  2494.28     0  04:47        0.65
  DES-3                OUTFALL      0.52     0.70  2493.83     0  05:06        0.67
  V-1                  STORAGE      1.12     3.34  2496.34     0  06:43        3.34
  V-2                  STORAGE      1.87     4.00  2498.28     0  05:14        4.00
  V-3                  STORAGE      1.77     4.50  2498.78     0  05:32        4.50
  
  
  *******************
  Node Inflow Summary
  *******************
  
  -------------------------------------------------------------------------------------------------
                                  Maximum  Maximum                  Lateral       Total        Flow
                                  Lateral    Total  Time of Max      Inflow      Inflow     Balance
                                   Inflow   Inflow   Occurrence      Volume      Volume       Error
  Node                 Type           CMS      CMS  days hr:min    10^6 ltr    10^6 ltr     Percent
  -------------------------------------------------------------------------------------------------
  N-5                  JUNCTION    17.882   17.882     0  04:35         205         205       0.612
  N-6                  JUNCTION     3.865   21.078     0  04:37        22.6         227       0.918
  N-7                  JUNCTION     0.000   15.594     0  04:49           0         225       0.695
  N-9                  JUNCTION     0.000   14.618     0  04:50           0         223       0.282
  N-13                 JUNCTION     0.000    4.599     0  04:51           0        72.4       2.523
  N-14                 JUNCTION     0.000    5.165     0  04:51           0        82.9       0.598
  N-15                 JUNCTION     0.000    4.282     0  04:51           0        67.2       1.570
  DES-1                OUTFALL      0.000    2.531     0  06:44           0        79.5       0.000
  DES-2                OUTFALL      0.000    1.364     0  05:34           0          59       0.000
  DES-3                OUTFALL      0.000    1.431     0  05:38           0        57.5       0.000
  V-1                  STORAGE      0.000    4.704     0  05:36           0        82.4       0.307
  V-2                  STORAGE      0.000    4.103     0  05:11           0        70.6      -1.550
  V-3                  STORAGE      0.000    4.115     0  05:28           0        66.2       0.325
  
  
  **********************
  Node Surcharge Summary
  **********************
  
  Surcharging occurs when water rises above the top of the highest conduit.
  ---------------------------------------------------------------------
                                               Max. Height   Min. Depth
                                   Hours       Above Crown    Below Rim
  Node                 Type      Surcharged         Meters       Meters
  ---------------------------------------------------------------------
  N-9                  JUNCTION        0.28          0.064        1.936
  
  
  *********************
  Node Flooding Summary
  *********************
  
  Flooding refers to all water that overflows a node, whether it ponds or not.
  --------------------------------------------------------------------------
                                                             Total   Maximum
                                 Maximum   Time of Max       Flood    Ponded
                        Hours       Rate    Occurrence      Volume     Depth
  Node                 Flooded       CMS   days hr:min    10^6 ltr    Meters
  --------------------------------------------------------------------------
  V-2                     2.66     2.719      0  05:14      11.847     0.000
  V-3                     1.65     2.513      0  05:32       7.466     0.000
  
  
  **********************
  Storage Volume Summary
  **********************
  
  ------------------------------------------------------------------------------------------------
                         Average    Avg   Evap  Exfil     Maximum    Max    Time of Max    Maximum
                          Volume   Pcnt   Pcnt   Pcnt      Volume   Pcnt     Occurrence    Outflow
  Storage Unit           1000 mł   Full   Loss   Loss     1000 mł   Full    days hr:min        CMS
  ------------------------------------------------------------------------------------------------
  V-1                      6.181   22.5    0.0    0.0      18.360   66.8       0  06:43      2.531
  V-2                      3.362   46.7    0.0    0.0       7.200  100.0       0  05:14      1.364
  V-3                      3.901   39.4    0.0    0.0       9.900  100.0       0  05:32      1.431
  
  
  ***********************
  Outfall Loading Summary
  ***********************
  
  -----------------------------------------------------------
                         Flow       Avg       Max       Total
                         Freq      Flow      Flow      Volume
  Outfall Node           Pcnt       CMS       CMS    10^6 ltr
  -----------------------------------------------------------
  DES-1                 95.61     1.283     2.531      79.460
  DES-2                 95.79     0.950     1.364      58.973
  DES-3                 95.84     0.926     1.431      57.491
  -----------------------------------------------------------
  System                95.75     3.159     5.259     195.924
  
  
  ********************
  Link Flow Summary
  ********************
  
  -----------------------------------------------------------------------------
                                 Maximum  Time of Max   Maximum    Max/    Max/
                                  |Flow|   Occurrence   |Veloc|    Full    Full
  Link                 Type          CMS  days hr:min     m/sec    Flow   Depth
  -----------------------------------------------------------------------------
  C-1                  CONDUIT    17.435     0  04:39      1.33    0.07    0.28
  C-2                  CONDUIT    15.594     0  04:49      0.71    0.06    0.44
  C-5                  CONDUIT     4.704     0  05:36      2.86    1.19    0.88
  C-6                  CONDUIT     4.103     0  05:11      2.49    1.29    1.00
  C-7                  CONDUIT     4.115     0  05:28      2.52    1.42    1.00
  C-8                  CONDUIT     2.531     0  06:44      4.00    1.87    0.98
  C-9                  CONDUIT     1.364     0  05:34      4.13    1.86    1.00
  C-10                 CONDUIT     1.431     0  05:38      3.75    1.68    1.00
  C-11                 CONDUIT    14.618     0  04:50      2.57    1.24    0.99
  R-4                  ORIFICE     5.165     0  04:51                      1.00
  R-5                  ORIFICE     4.599     0  04:51                      1.00
  R-6                  ORIFICE     4.282     0  04:51                      1.00
  
  
  ***************************
  Flow Classification Summary
  ***************************
  
  -------------------------------------------------------------------------------------
                      Adjusted    ---------- Fraction of Time in Flow Class ---------- 
                       /Actual         Up    Down  Sub   Sup   Up    Down  Norm  Inlet 
  Conduit               Length    Dry  Dry   Dry   Crit  Crit  Crit  Crit  Ltd   Ctrl  
  -------------------------------------------------------------------------------------
  C-1                     1.00   0.00  0.00  0.00  1.00  0.00  0.00  0.00  0.37  0.00
  C-2                     1.00   0.00  0.00  0.00  1.00  0.00  0.00  0.00  0.56  0.00
  C-5                     1.00   0.02  0.00  0.00  0.00  0.00  0.00  0.98  0.00  0.00
  C-6                     1.00   0.02  0.00  0.00  0.33  0.00  0.00  0.64  0.26  0.00
  C-7                     1.00   0.02  0.00  0.00  0.25  0.00  0.00  0.73  0.07  0.00
  C-8                     1.00   0.03  0.00  0.00  0.46  0.50  0.00  0.00  0.01  0.00
  C-9                     1.00   0.03  0.00  0.00  0.64  0.33  0.00  0.00  0.00  0.00
  C-10                    1.00   0.03  0.00  0.00  0.55  0.42  0.00  0.00  0.00  0.00
  C-11                    1.00   0.01  0.00  0.00  0.99  0.00  0.00  0.00  0.80  0.00
  
  
  *************************
  Conduit Surcharge Summary
  *************************
  
  ----------------------------------------------------------------------------
                                                           Hours        Hours 
                         --------- Hours Full --------   Above Full   Capacity
  Conduit                Both Ends  Upstream  Dnstream   Normal Flow   Limited
  ----------------------------------------------------------------------------
  C-5                         0.01      1.12      0.01      1.43         0.01
  C-6                         0.82      1.26      2.81      1.49         0.82
  C-7                         0.54      1.31      1.61      1.50         0.54
  C-8                         0.01      6.78      0.01      7.32         0.01
  C-9                         1.93     10.73      1.93     11.37         1.93
  C-10                        3.44      9.27      3.44      9.67         3.44
  C-11                        0.01      0.30      0.28      0.98         0.01
  

  Analysis begun on:  Tue Jun 23 20:52:01 2026
  Analysis ended on:  Tue Jun 23 20:52:01 2026
  Total elapsed time: < 1 sec