
  EPA STORM WATER MANAGEMENT MODEL - VERSION 5.2 (Build 5.2.4)
  ------------------------------------------------------------

  Fixed 0.020, 1.0rrv; Fixed 0.0; New UK 8.0, 110rrv & Ground Infiltration 
  
  ****************
  Analysis Options
  ****************
  Flow Units ............... CFS
  Process Models:
    Rainfall/Runoff ........ YES
    RDII ................... NO
    Snowmelt ............... NO
    Groundwater ............ NO
    Flow Routing ........... YES
    Ponding Allowed ........ YES
    Water Quality .......... NO
  Infiltration Method ...... HORTON
  Flow Routing Method ...... DYNWAVE
  Surcharge Method ......... EXTRAN
  Starting Date ............ 12/12/2018 00:00:00
  Ending Date .............. 12/13/2018 00:00:00
  Antecedent Dry Days ...... 0.0
  Report Time Step ......... 00:15:00
  Wet Time Step ............ 00:05:00
  Dry Time Step ............ 01:00:00
  Routing Time Step ........ 30.00 sec
  Variable Time Step ....... YES
  Maximum Trials ........... 8
  Number of Threads ........ 1
  Head Tolerance ........... 0.005000 ft
  
  
  **************************        Volume         Depth
  Runoff Quantity Continuity     acre-feet        inches
  **************************     ---------       -------
  Total Precipitation ......      2143.824        15.000
  Evaporation Loss .........         0.000         0.000
  Infiltration Loss ........         0.000         0.000
  Surface Runoff ...........      1955.988        13.686
  Final Storage ............       194.652         1.362
  Continuity Error (%) .....        -0.318
  
  
  **************************        Volume        Volume
  Flow Routing Continuity        acre-feet      10^6 gal
  **************************     ---------     ---------
  Dry Weather Inflow .......     31773.950     10354.016
  Wet Weather Inflow .......      1955.994       637.390
  Groundwater Inflow .......         0.000         0.000
  RDII Inflow ..............         0.000         0.000
  External Inflow ..........         0.000         0.000
  External Outflow .........        33.926        11.055
  Flooding Loss ............       139.806        45.558
  Evaporation Loss .........         0.000         0.000
  Exfiltration Loss ........         0.000         0.000
  Initial Stored Volume ....         0.000         0.000
  Final Stored Volume ......     33556.546     10934.902
  Continuity Error (%) .....        -0.001
  
  
  ***************************
  Time-Step Critical Elements
  ***************************
  Link 3061.1 (98.59%)
  
  
  ********************************
  Highest Flow Instability Indexes
  ********************************
  Link 2270.1 (2)
  Link 2234.1 (1)
  Link 3887.1 (1)
  Link 3886.1 (1)
  
  
  *********************************
  Most Frequent Nonconverging Nodes
  *********************************
  Node Outfall (1.18%)
  Node 3081 (0.68%)
  Node 3082 (0.66%)
  Node 3085 (0.60%)
  Node 3080 (0.56%)
  
  
  *************************
  Routing Time Step Summary
  *************************
  Minimum Time Step           :     0.50 sec
  Average Time Step           :    12.44 sec
  Maximum Time Step           :    30.00 sec
  % of Time in Steady State   :     0.00
  Average Iterations per Step :     2.09
  % of Steps Not Converging   :     1.18
  Time Step Frequencies       :
     30.000 - 13.228 sec      :     0.55 %
     13.228 -  5.833 sec      :    99.01 %
      5.833 -  2.572 sec      :     0.20 %
      2.572 -  1.134 sec      :     0.12 %
      1.134 -  0.500 sec      :     0.13 %
  
  
  ***************************
  Subcatchment Runoff Summary
  ***************************
  
  ------------------------------------------------------------------------------------------------------------------------------
                            Total      Total      Total      Total     Imperv       Perv      Total       Total     Peak  Runoff
                           Precip      Runon       Evap      Infil     Runoff     Runoff     Runoff      Runoff   Runoff   Coeff
  Subcatchment                 in         in         in         in         in         in         in    10^6 gal      CFS
  ------------------------------------------------------------------------------------------------------------------------------
  S2234                     15.00       0.00       0.00       0.00       6.00       7.40      13.40        1.82    15.10   0.893
  S2251                     15.00       0.00       0.00       0.00       6.00       7.85      13.85        1.14     9.21   0.923
  S2252                     15.00       0.00       0.00       0.00       6.00       6.40      12.40        2.36    21.23   0.827
  S2253                     15.00       0.00       0.00       0.00       6.00       9.00      15.00        4.34    32.27   1.000
  S2254                     15.00       0.00       0.00       0.00       6.00       9.00      15.00        4.13    30.65   1.000
  S2255                     15.00       0.00       0.00       0.00       6.00       9.00      15.00        8.12    60.28   1.000
  S2256                     15.00       0.00       0.00       0.00       6.00       6.80      12.80       10.33    89.89   0.853
  S2257                     15.00       0.00       0.00       0.00       6.00       5.40      11.40        2.56    25.02   0.760
  S2258                     15.00       0.00       0.00       0.00       6.00       7.00      13.00        1.22    10.42   0.867
  S2260                     15.00       0.00       0.00       0.00       6.00       6.90      12.90       50.65   437.39   0.860
  S2261                     15.00       0.00       0.00       0.00       6.00       6.80      12.80       15.47   134.62   0.853
  S2262                     15.00       0.00       0.00       0.00       6.00       7.30      13.30       18.15   152.05   0.887
  S2265                     15.00       0.00       0.00       0.00       6.00       6.80      12.80        3.70    32.22   0.853
  S2266                     15.00       0.00       0.00       0.00       6.00       7.50      13.50        8.87    73.22   0.900
  S2267                     15.00       0.00       0.00       0.00       6.00       7.70      13.70      155.53  1264.77   0.913
  S2268                     15.00       0.00       0.00       0.00       6.00       9.00      15.00        3.84    28.54   1.000
  S2269                     15.00       0.00       0.00       0.00       6.00       9.00      15.00       11.07    82.20   1.000
  S2270                     15.00       0.00       0.00       0.00       6.00       6.70      12.70        4.86    42.63   0.847
  S2271                     15.00       0.00       0.00       0.00       6.00       5.10      11.10       11.72   117.62   0.740
  S2273                     15.00       0.00       0.00       0.00       6.00       5.10      11.10       23.00   230.82   0.740
  S3084                     15.00       0.00       0.00       0.00       6.00       5.25      11.25       14.59   144.46   0.750
  S3880                     15.00       0.00       0.00       0.00       6.00       7.70      13.70       63.06   512.79   0.913
  S3881                     15.00       0.00       0.00       0.00       6.00       9.00      15.00        2.06    15.27   1.000
  S3882                     15.00       0.00       0.00       0.00       6.00       9.00      15.00        2.31    17.19   1.000
  S3883                     15.00       0.00       0.00       0.00       6.00       6.10      12.10        2.17    20.00   0.807
  S3884                     15.00       0.00       0.00       0.00       6.00       6.30      12.30        5.34    48.35   0.820
  S3886                     15.00       0.00       0.00       0.00       6.00       4.95      10.95        3.93    39.95   0.730
  S3887                     15.00       0.00       0.00       0.00       6.00       7.30      13.30        2.55    21.35   0.887
  S3888                     15.00       0.00       0.00       0.00       6.00       5.25      11.25        1.89    18.68   0.750
  S3889                     15.00       0.00       0.00       0.00       6.00       9.00      15.00       42.55   316.06   1.000
  S3891                     15.00       0.00       0.00       0.00       6.00       9.00      15.00      154.03  1144.00   1.000
  
  
  ******************
  Node Depth Summary
  ******************
  
  ---------------------------------------------------------------------------------
                                 Average  Maximum  Maximum  Time of Max    Reported
                                   Depth    Depth      HGL   Occurrence   Max Depth
  Node                 Type         Feet     Feet     Feet  days hr:min        Feet
  ---------------------------------------------------------------------------------
  2233                 JUNCTION     9.98    10.00    20.00     0  00:00       10.00
  2234                 JUNCTION    32.03    39.59    47.45     1  00:00       39.59
  2238                 JUNCTION    13.82    13.85    15.00     0  00:01       13.85
  22389                JUNCTION    14.92    15.24    15.00     0  00:03       15.24
  2251                 JUNCTION    29.15    36.87   115.66     1  00:00       36.87
  2252                 JUNCTION    34.00    43.80   100.17     1  00:00       43.80
  2253                 JUNCTION    32.00    41.84    90.47     1  00:00       41.84
  2254                 JUNCTION    37.15    46.78    89.98     1  00:00       46.78
  2255                 JUNCTION    37.55    46.99    89.58     1  00:00       46.99
  2256                 JUNCTION    43.76    52.95    88.88     1  00:00       52.95
  2257                 JUNCTION    35.46    45.29    80.29     1  00:00       45.29
  2258                 JUNCTION    29.91    38.57    72.38     1  00:00       38.57
  2260                 JUNCTION    48.02    57.50    59.54     1  00:00       57.50
  2261                 JUNCTION    87.20    96.86    99.88     1  00:00       96.86
  2262                 JUNCTION   122.60   131.10   137.60     1  00:00      131.10
  2265                 JUNCTION    35.43    40.70    48.44     1  00:00       40.70
  2266                 JUNCTION    31.31    40.36    68.80     1  00:00       40.36
  2267                 JUNCTION    46.05    55.57   159.65     1  00:00       55.57
  2268                 JUNCTION    27.80    37.40   119.97     1  00:00       37.40
  2269                 JUNCTION    25.27    34.85   119.85     1  00:00       34.85
  2270                 JUNCTION    30.95    39.14    47.24     1  00:00       39.14
  2271                 JUNCTION    27.45    37.57    46.39     1  00:00       37.57
  2273                 JUNCTION    22.27    33.38    42.92     1  00:00       33.38
  3060                 JUNCTION     3.13     3.22    -1.86     1  00:00        3.22
  3061                 JUNCTION     2.16     2.20    -3.36     0  17:03        2.20
  3080                 JUNCTION     9.42     9.66     7.36     0  17:13        9.66
  3081                 JUNCTION     9.94    10.18     8.11     1  00:00       10.18
  3082                 JUNCTION    10.46    10.71     8.86     0  17:13       10.71
  3084                 JUNCTION    29.48    38.61    38.81     1  00:00       38.61
  3085                 JUNCTION     8.39     8.61     5.85     0  17:13        8.61
  3086                 JUNCTION     7.63     7.83     4.73     0  17:14        7.83
  3087                 JUNCTION     6.72     6.90     3.39     0  17:11        6.90
  3089                 JUNCTION     3.92     4.03    -0.69     0  17:09        4.03
  3880                 JUNCTION    53.56    62.77    84.01     1  00:00       62.77
  3881                 JUNCTION    54.38    64.36    85.73     1  00:00       64.36
  3882                 JUNCTION    56.20    67.23    88.82     1  00:00       67.23
  3883                 JUNCTION    63.74    74.13    96.10     1  00:00       74.13
  3884                 JUNCTION    72.96    82.27   104.58     1  00:00       82.27
  3886                 JUNCTION    77.29    87.05   111.15     1  00:00       87.05
  3887                 JUNCTION    76.79    84.33   107.12     1  00:00       84.33
  3888                 JUNCTION    80.34    89.85   114.27     1  00:00       89.85
  3889                 JUNCTION    80.68    90.14   114.58     1  00:00       90.14
  3891                 JUNCTION    80.40    89.90   114.71     1  00:00       89.90
  3892                 JUNCTION     5.39     5.53     1.42     0  17:11        5.53
  3894                 JUNCTION     5.01     5.15     0.88     0  17:14        5.15
  3896                 JUNCTION     4.71     4.84     0.45     1  00:00        4.84
  3897                 JUNCTION     4.36     4.48    -0.05     0  17:15        4.48
  Outfall              OUTFALL      1.43     1.46    -4.33     0  17:04        1.46
  
  
  *******************
  Node Inflow Summary
  *******************
  
  -------------------------------------------------------------------------------------------------
                                  Maximum  Maximum                  Lateral       Total        Flow
                                  Lateral    Total  Time of Max      Inflow      Inflow     Balance
                                   Inflow   Inflow   Occurrence      Volume      Volume       Error
  Node                 Type           CFS      CFS  days hr:min    10^6 gal    10^6 gal     Percent
  -------------------------------------------------------------------------------------------------
  2233                 JUNCTION      0.00    29.00     1  00:00           0        12.7       0.011
  2234                 JUNCTION     62.10   256.75     0  00:00        32.2        85.1       0.016
  2238                 JUNCTION      0.00    58.55     1  00:00           0        33.9       0.062
  22389                JUNCTION      0.00    39.76     0  00:03           0        11.5       0.370
  2251                 JUNCTION     37.21    39.06     0  06:00        19.2        20.7       0.003
  2252                 JUNCTION     87.23    95.56     0  05:05          45        50.2       0.000
  2253                 JUNCTION    132.27   138.54     0  05:05          69          73       0.000
  2254                 JUNCTION    125.65   128.02     0  06:00        65.5        67.4      -0.000
  2255                 JUNCTION    246.28   247.90     0  06:00         128         130       0.000
  2256                 JUNCTION    367.89   371.53     0  06:00         190         193      -0.000
  2257                 JUNCTION    102.02   117.46     0  05:05        52.3        62.1       0.000
  2258                 JUNCTION     42.42    65.55     0  00:00        21.9        29.2       0.007
  2260                 JUNCTION   1788.39  1810.54     0  06:00         924         938      -0.000
  2261                 JUNCTION    550.62   579.18     0  05:05         284         303      -0.000
  2262                 JUNCTION    621.05   621.05     0  05:05         321         321       0.000
  2265                 JUNCTION    131.22   260.74     0  00:00        67.7        82.3       0.023
  2266                 JUNCTION    299.22   314.91     0  05:05         155         165       0.000
  2267                 JUNCTION   5169.77  5169.77     0  05:05    2.68e+03    2.68e+03      -0.000
  2268                 JUNCTION    116.54   120.73     0  05:05        60.7        63.4       0.003
  2269                 JUNCTION    336.20   336.98     0  06:00         175         176      -0.000
  2270                 JUNCTION    174.63   367.42     0  00:00        90.2         155       0.010
  2271                 JUNCTION    480.62   707.09     0  05:15         246         370       0.000
  2273                 JUNCTION    943.82  1104.66     0  05:15         484         583       0.000
  3060                 JUNCTION      0.00    17.41     0  17:06           0        11.1       0.116
  3061                 JUNCTION      0.00    17.41     0  17:10           0        11.1       0.095
  3080                 JUNCTION      0.00    22.72     0  00:04           0        11.2       0.099
  3081                 JUNCTION      0.00    23.29     0  00:04           0        11.2       0.071
  3082                 JUNCTION      0.00    23.92     0  00:03           0        11.2       0.043
  3084                 JUNCTION    590.46   590.46     0  05:10         303         303       0.000
  3085                 JUNCTION      0.00    22.39     0  00:06           0        11.2       0.108
  3086                 JUNCTION      0.00    20.21     0  00:07           0        11.1       0.105
  3087                 JUNCTION      0.00    19.54     0  00:09           0        11.1       0.140
  3089                 JUNCTION      0.00    17.58     0  00:13           0        11.1       0.078
  3880                 JUNCTION   2095.79  2110.32     0  06:00    1.09e+03     1.1e+03       0.000
  3881                 JUNCTION     62.27   135.65     0  00:00        32.4        45.6       0.011
  3882                 JUNCTION     70.19   122.97     0  00:00        36.6        57.3       0.007
  3883                 JUNCTION     82.00   146.73     0  00:00        42.2        66.2       0.017
  3884                 JUNCTION    197.35   242.36     0  05:05         102         126       0.000
  3886                 JUNCTION    162.95   187.59     0  05:20        83.4         100       0.000
  3887                 JUNCTION     87.35   228.62     0  00:00        45.2        54.3       0.015
  3888                 JUNCTION     76.68   359.19     0  00:00        39.4        53.5       0.007
  3889                 JUNCTION   1292.06  1302.23     0  06:00         673         681      -0.000
  3891                 JUNCTION   4676.00  4676.00     0  05:15    2.44e+03    2.44e+03       0.000
  3892                 JUNCTION      0.00    19.05     0  00:11           0        11.1       0.107
  3894                 JUNCTION      0.00    18.22     0  00:12           0        11.1       0.045
  3896                 JUNCTION      0.00    18.24     0  00:12           0        11.1       0.043
  3897                 JUNCTION      0.00    17.89     0  00:13           0        11.1       0.050
  Outfall              OUTFALL       0.00    17.41     1  00:00           0        11.1       0.000
  
  
  **********************
  Node Surcharge Summary
  **********************
  
  Surcharging occurs when water rises above the top of the highest conduit.
  ---------------------------------------------------------------------
                                               Max. Height   Min. Depth
                                   Hours       Above Crown    Below Rim
  Node                 Type      Surcharged           Feet         Feet
  ---------------------------------------------------------------------
  2233                 JUNCTION       24.00          8.667        0.000
  2234                 JUNCTION       24.00         35.587        0.000
  2238                 JUNCTION       23.98         11.696        0.000
  22389                JUNCTION       23.94         13.241        0.000
  2251                 JUNCTION       24.00         36.037        0.000
  2252                 JUNCTION       24.00         42.797        0.000
  2253                 JUNCTION       24.00         40.510        0.000
  2254                 JUNCTION       24.00         45.449        0.000
  2255                 JUNCTION       24.00         45.657        0.000
  2256                 JUNCTION       24.00         51.616        0.000
  2257                 JUNCTION       24.00         43.956        0.000
  2258                 JUNCTION       24.00         37.233        0.000
  2260                 JUNCTION       24.00         56.003        0.000
  2261                 JUNCTION       24.00         95.357        0.000
  2262                 JUNCTION       24.00        129.603        0.000
  2265                 JUNCTION       24.00         38.198        0.000
  2266                 JUNCTION       24.00         39.025        0.000
  2267                 JUNCTION       24.00         54.901        0.000
  2268                 JUNCTION       24.00         34.804        0.000
  2269                 JUNCTION       24.00         34.183        0.000
  2270                 JUNCTION       24.00         35.139        0.000
  2271                 JUNCTION       24.00         33.566        0.000
  2273                 JUNCTION       24.00         29.384        0.000
  3060                 JUNCTION       23.73          0.965       16.861
  3080                 JUNCTION       23.91          7.405        7.638
  3081                 JUNCTION       23.93          7.933        6.888
  3082                 JUNCTION       23.93          8.127        6.139
  3084                 JUNCTION       24.00         37.274        0.000
  3085                 JUNCTION       23.89          6.356        9.151
  3086                 JUNCTION       23.87          5.578       10.266
  3087                 JUNCTION       23.83          4.648       11.606
  3089                 JUNCTION       23.76          1.784       15.685
  3880                 JUNCTION       24.00         60.772        0.000
  3881                 JUNCTION       24.00         62.362        0.000
  3882                 JUNCTION       24.00         65.230        0.000
  3883                 JUNCTION       24.00         72.125        0.000
  3884                 JUNCTION       24.00         80.268        0.000
  3886                 JUNCTION       24.00         85.051        0.000
  3887                 JUNCTION       24.00         82.334        0.000
  3888                 JUNCTION       24.00         87.852        0.000
  3889                 JUNCTION       24.00         88.139        0.000
  3891                 JUNCTION       24.00         87.905        0.000
  3892                 JUNCTION       23.80          3.282       13.583
  3894                 JUNCTION       23.80          2.899       14.121
  3896                 JUNCTION       23.79          2.589       14.552
  3897                 JUNCTION       23.78          2.234       15.049
  
  
  *********************
  Node Flooding Summary
  *********************
  
  Flooding refers to all water that overflows a node, whether it ponds or not.
  --------------------------------------------------------------------------
                                                             Total   Maximum
                                 Maximum   Time of Max       Flood    Ponded
                        Hours       Rate    Occurrence      Volume     Depth
  Node                 Flooded       CFS   days hr:min    10^6 gal      Feet
  --------------------------------------------------------------------------
  2233                   24.00     29.00      1  00:00      12.690     0.000
  2234                   20.47    168.57      0  00:00      20.260    12.446
  2238                   23.98     58.54      1  00:00      32.543     0.000
  22389                   8.87     17.75      0  00:03       0.326     0.000
  2251                   24.00     30.77      0  06:00      15.535    15.659
  2252                   24.00     89.30      0  05:05      46.150    20.173
  2253                   24.00    136.32      0  05:05      71.165    20.469
  2254                   24.00    126.41      0  05:05      65.966    19.978
  2255                   24.00    244.25      0  06:00     127.164    19.583
  2256                   24.00    356.15      0  06:00     182.826    18.883
  2257                   24.00    106.82      0  05:05      54.719    20.294
  2258                   24.00     62.25      0  00:00      19.517    17.379
  2260                   24.00   1785.69      0  05:05     920.571    19.540
  2261                   24.00    557.03      0  05:05     288.284    19.878
  2262                   24.00    570.26      0  05:05     288.368    17.603
  2265                   23.07    172.64      0  00:00      29.352     8.439
  2266                   24.00    291.10      0  05:05     148.239    18.795
  2267                   24.00   5165.59      0  06:00    2676.515    19.648
  2268                   24.00    118.26      0  05:05      61.412    19.971
  2269                   24.00    336.98      0  06:00     175.741    19.849
  2270                   24.00    286.11      0  00:00      79.195    17.238
  2271                   24.00    546.24      0  05:15     271.086    21.389
  2273                   24.00   1090.92      0  05:15     569.982    22.925
  3084                   24.00    577.60      0  05:10     292.645    18.807
  3880                   24.00   2035.67      0  06:00    1049.724    19.005
  3881                   24.00     95.59      0  00:00      34.116    20.729
  3882                   24.00    120.37      0  00:00      44.145    23.824
  3883                   24.00    104.57      0  00:00      45.496    21.100
  3884                   24.00    204.13      0  05:05     102.006    19.582
  3886                   24.00    187.55      0  05:20      91.057    21.150
  3887                   21.54    206.71      0  00:00      27.903    12.120
  3888                   24.00    310.05      0  00:00      38.805    19.273
  3889                   24.00   1276.63      0  06:00     666.612    19.582
  3891                   24.00   4666.66      0  05:05    2429.199    19.715
  
  
  ***********************
  Outfall Loading Summary
  ***********************
  
  -----------------------------------------------------------
                         Flow       Avg       Max       Total
                         Freq      Flow      Flow      Volume
  Outfall Node           Pcnt       CFS       CFS    10^6 gal
  -----------------------------------------------------------
  Outfall               98.86     17.25     17.41      11.055
  -----------------------------------------------------------
  System                98.86     17.25     17.41      11.055
  
  
  ********************
  Link Flow Summary
  ********************
  
  -----------------------------------------------------------------------------
                                 Maximum  Time of Max   Maximum    Max/    Max/
                                  |Flow|   Occurrence   |Veloc|    Full    Full
  Link                 Type          CFS  days hr:min    ft/sec    Flow   Depth
  -----------------------------------------------------------------------------
  2233.1               CONDUIT     29.00     1  00:00     20.77    6.89    1.00
  2234.1               CONDUIT    138.80     0  00:00     29.25    7.56    1.00
  2238.1               CONDUIT     22.03     0  00:03      7.25    3.08    1.00
  22389.1              CONDUIT     23.92     0  00:03      7.84    3.34    1.00
  2251.1               CONDUIT      8.56     0  00:00     15.70    0.92    1.00
  2252.1               CONDUIT      6.35     0  00:01      8.09    1.13    1.00
  2253.1               CONDUIT      3.92     1  00:00      2.81    0.29    1.00
  2254.1               CONDUIT      3.34     1  00:00      2.39    0.79    1.00
  2255.1               CONDUIT      5.15     1  00:00      3.69    0.32    1.00
  2256.1               CONDUIT     15.68     0  00:01     11.23    3.23    1.00
  2257.1               CONDUIT     14.67     0  00:00     10.85    3.02    1.00
  2258.1               CONDUIT     19.25     0  00:00     14.61    1.06    1.00
  2260.1               CONDUIT     30.65     1  00:00     18.00    7.01    1.00
  2261.1               CONDUIT     22.22     1  00:00     12.58    6.37    1.00
  2262.1               CONDUIT     28.72     0  00:01     16.25    3.36    1.00
  2265.1               CONDUIT     23.05     0  00:00     13.04    8.47    1.00
  2266.1               CONDUIT     27.90     1  00:00     19.98    1.40    1.00
  2267.1               CONDUIT      4.19     0  00:00     12.01    1.36    1.00
  2268.1               CONDUIT      3.20     1  00:00      5.86    1.06    1.00
  2269.1               CONDUIT      8.95     0  00:00     25.64    4.79    1.00
  2270.1               CONDUIT    235.42     0  00:00     18.73    3.66    1.00
  2271.1               CONDUIT    161.75     0  00:04     14.38    2.52    1.00
  2273.1               CONDUIT    162.19     0  00:03     12.91    2.52    1.00
  3060.1               CONDUIT     17.41     0  17:10      4.73    1.78    0.99
  3061.1               CONDUIT     17.41     1  00:00      5.03    1.78    0.81
  3080.1               CONDUIT     22.39     0  00:06      6.54    2.28    1.00
  3081.1               CONDUIT     22.72     0  00:04      6.77    2.32    1.00
  3082.1               CONDUIT     23.29     0  00:04      6.38    2.38    1.00
  3084.1               CONDUIT     20.18     1  00:00     14.46   14.68    1.00
  3085.1               CONDUIT     20.21     0  00:07      6.05    2.06    1.00
  3086.1               CONDUIT     19.54     0  00:09      5.88    1.99    1.00
  3087.1               CONDUIT     19.05     0  00:11      5.33    1.94    1.00
  3089.1               CONDUIT     17.41     0  17:06      5.74    1.78    1.00
  3880.1               CONDUIT     75.45     0  00:01     24.02    1.92    1.00
  3881.1               CONDUIT     88.00     0  00:00     29.39   12.29    1.00
  3882.1               CONDUIT     46.48     0  00:00     15.66    6.49    1.00
  3883.1               CONDUIT     36.03     0  00:01     11.47    5.03    1.00
  3884.1               CONDUIT     84.73     0  00:00     27.86   11.83    1.00
  3886.1               CONDUIT     60.72     0  00:00     20.17    4.60    1.00
  3887.1               CONDUIT    101.90     0  00:00     33.86    7.72    1.00
  3888.1               CONDUIT     27.62     0  00:02      8.79    3.86    1.00
  3889.1               CONDUIT    279.98     0  00:00    >50.00   39.09    1.00
  3891.1               CONDUIT     36.01     0  00:00     11.46    1.11    1.00
  3892.1               CONDUIT     18.22     0  00:12      4.59    1.86    1.00
  3894.1               CONDUIT     18.24     0  00:12      4.62    1.86    1.00
  3896.1               CONDUIT     17.89     0  00:13      4.70    1.82    1.00
  3897.1               CONDUIT     17.58     0  00:13      5.53    1.79    1.00
  
  
  ***************************
  Flow Classification Summary
  ***************************
  
  -------------------------------------------------------------------------------------
                      Adjusted    ---------- Fraction of Time in Flow Class ---------- 
                       /Actual         Up    Down  Sub   Sup   Up    Down  Norm  Inlet 
  Conduit               Length    Dry  Dry   Dry   Crit  Crit  Crit  Crit  Ltd   Ctrl  
  -------------------------------------------------------------------------------------
  2233.1                  1.00   0.00  0.00  0.00  1.00  0.00  0.00  0.00  0.00  0.00
  2234.1                  1.00   0.00  0.00  0.00  1.00  0.00  0.00  0.00  0.00  0.00
  2238.1                  1.00   0.00  0.00  0.00  1.00  0.00  0.00  0.00  0.00  0.00
  22389.1                 1.00   0.00  0.00  0.00  1.00  0.00  0.00  0.00  0.00  0.00
  2251.1                  1.00   0.00  0.00  0.00  1.00  0.00  0.00  0.00  0.00  0.00
  2252.1                  1.00   0.00  0.00  0.00  1.00  0.00  0.00  0.00  0.00  0.00
  2253.1                  1.00   0.00  0.00  0.00  1.00  0.00  0.00  0.00  0.00  0.00
  2254.1                  1.00   0.00  0.00  0.00  1.00  0.00  0.00  0.00  0.00  0.00
  2255.1                  1.00   0.00  0.00  0.00  1.00  0.00  0.00  0.00  0.00  0.00
  2256.1                  1.00   0.00  0.00  0.00  1.00  0.00  0.00  0.00  0.00  0.00
  2257.1                  1.00   0.00  0.00  0.00  1.00  0.00  0.00  0.00  0.00  0.00
  2258.1                  1.00   0.00  0.00  0.00  1.00  0.00  0.00  0.00  0.00  0.00
  2260.1                  1.00   0.00  0.00  0.00  1.00  0.00  0.00  0.00  0.00  0.00
  2261.1                  1.00   0.00  0.00  0.00  1.00  0.00  0.00  0.00  0.00  0.00
  2262.1                  1.00   0.00  0.00  0.00  1.00  0.00  0.00  0.00  0.00  0.00
  2265.1                  1.00   0.00  0.00  0.00  1.00  0.00  0.00  0.00  0.00  0.00
  2266.1                  1.00   0.00  0.00  0.00  1.00  0.00  0.00  0.00  0.00  0.00
  2267.1                  1.00   0.00  0.00  0.00  1.00  0.00  0.00  0.00  0.00  0.00
  2268.1                  1.00   0.00  0.00  0.00  1.00  0.00  0.00  0.00  0.00  0.00
  2269.1                  1.00   0.00  0.00  0.00  1.00  0.00  0.00  0.00  0.00  0.00
  2270.1                  1.00   0.00  0.00  0.00  1.00  0.00  0.00  0.00  0.00  0.00
  2271.1                  1.00   0.00  0.00  0.00  1.00  0.00  0.00  0.00  0.00  0.00
  2273.1                  1.00   0.00  0.00  0.00  1.00  0.00  0.00  0.00  0.00  0.00
  3060.1                  1.00   0.01  0.00  0.00  0.99  0.00  0.00  0.00  0.00  0.00
  3061.1                  1.00   0.01  0.00  0.00  0.99  0.00  0.00  0.00  0.00  0.00
  3080.1                  1.00   0.00  0.00  0.00  1.00  0.00  0.00  0.00  0.00  0.00
  3081.1                  1.00   0.00  0.00  0.00  1.00  0.00  0.00  0.00  0.00  0.00
  3082.1                  1.00   0.00  0.00  0.00  1.00  0.00  0.00  0.00  0.00  0.00
  3084.1                  1.00   0.00  0.00  0.00  1.00  0.00  0.00  0.00  0.00  0.00
  3085.1                  1.00   0.00  0.00  0.00  1.00  0.00  0.00  0.00  0.00  0.00
  3086.1                  1.00   0.00  0.00  0.00  1.00  0.00  0.00  0.00  0.00  0.00
  3087.1                  1.00   0.00  0.00  0.00  1.00  0.00  0.00  0.00  0.00  0.00
  3089.1                  1.00   0.01  0.00  0.00  0.99  0.00  0.00  0.00  0.00  0.00
  3880.1                  1.00   0.00  0.00  0.00  1.00  0.00  0.00  0.00  0.00  0.00
  3881.1                  1.00   0.00  0.00  0.00  1.00  0.00  0.00  0.00  0.00  0.00
  3882.1                  1.00   0.00  0.00  0.00  1.00  0.00  0.00  0.00  0.00  0.00
  3883.1                  1.00   0.00  0.00  0.00  1.00  0.00  0.00  0.00  0.00  0.00
  3884.1                  1.00   0.00  0.00  0.00  1.00  0.00  0.00  0.00  0.00  0.00
  3886.1                  1.00   0.00  0.00  0.00  1.00  0.00  0.00  0.00  0.00  0.00
  3887.1                  1.00   0.00  0.00  0.00  1.00  0.00  0.00  0.00  0.00  0.00
  3888.1                  1.00   0.00  0.00  0.00  1.00  0.00  0.00  0.00  0.00  0.00
  3889.1                  1.00   0.00  0.00  0.00  1.00  0.00  0.00  0.00  0.00  0.00
  3891.1                  1.00   0.00  0.00  0.00  1.00  0.00  0.00  0.00  0.00  0.00
  3892.1                  1.00   0.00  0.00  0.00  1.00  0.00  0.00  0.00  0.00  0.00
  3894.1                  1.00   0.01  0.00  0.00  0.99  0.00  0.00  0.00  0.00  0.00
  3896.1                  1.00   0.01  0.00  0.00  0.99  0.00  0.00  0.00  0.00  0.00
  3897.1                  1.00   0.01  0.00  0.00  0.99  0.00  0.00  0.00  0.00  0.00
  
  
  *************************
  Conduit Surcharge Summary
  *************************
  
  ----------------------------------------------------------------------------
                                                           Hours        Hours 
                         --------- Hours Full --------   Above Full   Capacity
  Conduit                Both Ends  Upstream  Dnstream   Normal Flow   Limited
  ----------------------------------------------------------------------------
  2233.1                     24.00     24.00     24.00     23.49         0.01
  2234.1                     24.00     24.00     24.00     24.00         0.01
  2238.1                     23.94     23.98     23.94      0.21         0.16
  22389.1                    23.93     23.94     23.93     23.96        23.93
  2251.1                     24.00     24.00     24.00      0.01         0.01
  2252.1                     24.00     24.00     24.00     24.00        24.00
  2253.1                     24.00     24.00     24.00      0.01         0.01
  2254.1                     24.00     24.00     24.00      0.01         0.01
  2255.1                     24.00     24.00     24.00      0.01         0.01
  2256.1                     24.00     24.00     24.00     24.00        24.00
  2257.1                     24.00     24.00     24.00     24.00        24.00
  2258.1                     24.00     24.00     24.00      0.01         0.01
  2260.1                     23.99     24.00     23.99     24.00        23.99
  2261.1                     24.00     24.00     24.00     24.00        24.00
  2262.1                     24.00     24.00     24.00     24.00        24.00
  2265.1                     24.00     24.00     24.00     24.00         0.01
  2266.1                     24.00     24.00     24.00     24.00        24.00
  2267.1                     24.00     24.00     24.00     24.00        24.00
  2268.1                     24.00     24.00     24.00      3.37         3.93
  2269.1                     24.00     24.00     24.00      0.01         0.01
  2270.1                     24.00     24.00     24.00     19.95         0.01
  2271.1                     24.00     24.00     24.00     23.99         0.01
  2273.1                     24.00     24.00     24.00     24.00         0.01
  3060.1                      0.01     23.73      0.01     23.75         0.01
  3061.1                      0.01      0.01      0.01     23.73         0.01
  3080.1                     23.89     23.91     23.89     23.92        23.89
  3081.1                     23.91     23.93     23.91     23.93        23.91
  3082.1                     23.93     23.93     23.93     23.94        23.93
  3084.1                     24.00     24.00     24.00     24.00        24.00
  3085.1                     23.87     23.89     23.87     23.90        23.87
  3086.1                     23.83     23.87     23.83     23.88        23.83
  3087.1                     23.80     23.83     23.80     23.85        23.80
  3089.1                     23.73     23.76     23.73     23.78        23.73
  3880.1                     24.00     24.00     24.00     24.00        24.00
  3881.1                     24.00     24.00     24.00     22.53        22.61
  3882.1                     24.00     24.00     24.00     23.44        23.47
  3883.1                     24.00     24.00     24.00     24.00        24.00
  3884.1                     24.00     24.00     24.00     24.00        24.00
  3886.1                     24.00     24.00     24.00     19.25        15.89
  3887.1                     24.00     24.00     24.00     24.00        24.00
  3888.1                     24.00     24.00     24.00     24.00        24.00
  3889.1                     24.00     24.00     24.00     23.86        23.91
  3891.1                     24.00     24.00     24.00      0.01         0.01
  3892.1                     23.80     23.80     23.80     23.82        23.80
  3894.1                     23.79     23.80     23.79     23.82        23.79
  3896.1                     23.78     23.79     23.78     23.81        23.78
  3897.1                     23.76     23.78     23.76     23.80        23.76
  

  Analysis begun on:  Tue Jun 23 20:52:01 2026
  Analysis ended on:  Tue Jun 23 20:52:01 2026
  Total elapsed time: < 1 sec