
  EPA STORM WATER MANAGEMENT MODEL - VERSION 5.2 (Build 5.2.4)
  ------------------------------------------------------------

  
  ERROR 235: invalid infiltration parameters at line 130 of [INFIL] section:
  Haus1            3.0        0.5        4         

  
  ERROR 235: invalid infiltration parameters at line 131 of [INFIL] section:
  Haus2            3.0        0.5        4         

  
  ERROR 235: invalid infiltration parameters at line 132 of [INFIL] section:
  Haus3            3.0        0.5        4         

  
  ERROR 235: invalid infiltration parameters at line 133 of [INFIL] section:
  Haus4            3.0        0.5        4         

  
  ERROR 235: invalid infiltration parameters at line 134 of [INFIL] section:
  Haus5            3.0        0.5        4         

  
  ERROR 235: invalid infiltration parameters at line 135 of [INFIL] section:
  Haus6            3.0        0.5        4         

  
  ERROR 235: invalid infiltration parameters at line 136 of [INFIL] section:
  Haus7            3.0        0.5        4         

  
  ERROR 235: invalid infiltration parameters at line 137 of [INFIL] section:
  Befestigt1       3.0        0.5        4         

  
  ERROR 235: invalid infiltration parameters at line 138 of [INFIL] section:
  Befestigt2       3.0        0.5        4         

  
  ERROR 235: invalid infiltration parameters at line 139 of [INFIL] section:
  Befestigt3       3.0        0.5        4         

  
  ERROR 235: invalid infiltration parameters at line 140 of [INFIL] section:
  Befestigt4       3.0        0.5        4         

  
  ERROR 235: invalid infiltration parameters at line 141 of [INFIL] section:
  Befestigt5       3.0        0.5        4         

  
  ERROR 235: invalid infiltration parameters at line 142 of [INFIL] section:
  Befestigt6       3.0        0.5        4         

  
  ERROR 235: invalid infiltration parameters at line 143 of [INFIL] section:
  Befestigt7       3.0        0.5        4         

  
  ERROR 235: invalid infiltration parameters at line 144 of [INFIL] section:
  Hauptstraße1     3.0        0.5        4         

  
  ERROR 235: invalid infiltration parameters at line 145 of [INFIL] section:
  Haupstraße2      3.0        0.5        4         

  
  ERROR 235: invalid infiltration parameters at line 146 of [INFIL] section:
  Mainsoilfilter1  3.0        0.5        4         

  
  ERROR 235: invalid infiltration parameters at line 147 of [INFIL] section:
  Mainsoilfilter2  3.0        0.5        4         

  
  ERROR 235: invalid infiltration parameters at line 148 of [INFIL] section:
  Mainsoilfilter3  3.0        0.5        4         

  
  ERROR 235: invalid infiltration parameters at line 149 of [INFIL] section:
  Mainsoilfilter4  3.0        0.5        4         

  
  ERROR 235: invalid infiltration parameters at line 150 of [INFIL] section:
  Soilfilter1      3.0        0.5        4         

  
  ERROR 235: invalid infiltration parameters at line 151 of [INFIL] section:
  Soilfilter2      3.0        0.5        4         

  
  ERROR 235: invalid infiltration parameters at line 152 of [INFIL] section:
  Soilfilter3      3.0        0.5        4         

  
  ERROR 235: invalid infiltration parameters at line 153 of [INFIL] section:
  Soilfilter4      3.0        0.5        4         

  
  ERROR 235: invalid infiltration parameters at line 154 of [INFIL] section:
  Soilfilter5      3.0        0.5        4         

  
  ERROR 235: invalid infiltration parameters at line 155 of [INFIL] section:
  Soilfilter6      3.0        0.5        4         

  
  ERROR 235: invalid infiltration parameters at line 156 of [INFIL] section:
  Soilfilter7      3.0        0.5        4         

  
  ERROR 235: invalid infiltration parameters at line 157 of [INFIL] section:
  Soilfilter8      3.0        0.5        4         

  
  ERROR 235: invalid infiltration parameters at line 158 of [INFIL] section:
  Soilfilter9      3.0        0.5        4         

  
  ERROR 235: invalid infiltration parameters at line 159 of [INFIL] section:
  Soilfilter10     3.0        0.5        4         

  
  ERROR 235: invalid infiltration parameters at line 160 of [INFIL] section:
  Soilfilter11     3.0        0.5        4         

  
  ERROR 235: invalid infiltration parameters at line 161 of [INFIL] section:
  Soilfilter12     3.0        0.5        4         

  
  ERROR 235: invalid infiltration parameters at line 162 of [INFIL] section:
  Soilfilter13     3.0        0.5        4         


  Analysis begun on:  Tue Jun 23 20:52:01 2026
  Analysis ended on:  Tue Jun 23 20:52:01 2026
  Total elapsed time: < 1 sec