
  EPA STORM WATER MANAGEMENT MODEL - VERSION 5.2 (Build 5.2.4)
  ------------------------------------------------------------

  Subbasin..... inverted siphon.... Open channel..... 
  wet well .... 3 pumps .... Force main.... Gravity pipe ...... 
  detention pond.... Perforated riser outlet 
  
  ****************
  Analysis Options
  ****************
  Flow Units ............... CFS
  Process Models:
    Rainfall/Runoff ........ NO
    RDII ................... NO
    Snowmelt ............... NO
    Groundwater ............ NO
    Flow Routing ........... YES
    Ponding Allowed ........ NO
    Water Quality .......... NO
  Flow Routing Method ...... DYNWAVE
  Surcharge Method ......... EXTRAN
  Starting Date ............ 01/31/2009 00:00:00
  Ending Date .............. 01/31/2009 12:00:00
  Antecedent Dry Days ...... 0.0
  Report Time Step ......... 00:15:00
  Routing Time Step ........ 30.00 sec
  Variable Time Step ....... YES
  Maximum Trials ........... 8
  Number of Threads ........ 1
  Head Tolerance ........... 0.005000 ft
  
  
  ERROR 134: Node 1 has illegal DUMMY link connections.
  
  ERROR 134: Node 1 has illegal DUMMY link connections.
  
  ERROR 134: Node 1 has illegal DUMMY link connections.
  
  ERROR 145: Drainage system has no acceptable outlet nodes.

  Analysis begun on:  Tue Jun 23 20:52:29 2026
  Analysis ended on:  Tue Jun 23 20:52:29 2026
  Total elapsed time: < 1 sec