
  EPA STORM WATER MANAGEMENT MODEL - VERSION 5.2 (Build 5.2.4)
  ------------------------------------------------------------

    University Storm Drainage Evaluation 
    Project No: VOF02-11 
    October 2003 
  WARNING 02: maximum depth increased for Node J39
  
  ****************
  Analysis Options
  ****************
  Flow Units ............... CFS
  Process Models:
    Rainfall/Runoff ........ YES
    RDII ................... NO
    Snowmelt ............... NO
    Groundwater ............ NO
    Flow Routing ........... YES
    Ponding Allowed ........ NO
    Water Quality .......... NO
  Infiltration Method ...... HORTON
  Flow Routing Method ...... DYNWAVE
  Surcharge Method ......... EXTRAN
  Starting Date ............ 09/23/2003 00:00:00
  Ending Date .............. 09/24/2003 00:00:00
  Antecedent Dry Days ...... 0.0
  Report Time Step ......... 00:01:00
  Wet Time Step ............ 00:00:20
  Dry Time Step ............ 00:01:00
  Routing Time Step ........ 10.00 sec
  Variable Time Step ....... YES
  Maximum Trials ........... 8
  Number of Threads ........ 1
  Head Tolerance ........... 0.005000 ft
  
  
  **************************        Volume         Depth
  Runoff Quantity Continuity     acre-feet        inches
  **************************     ---------       -------
  Total Precipitation ......        40.915         3.589
  Evaporation Loss .........         0.000         0.000
  Infiltration Loss ........        32.516         2.852
  Surface Runoff ...........         8.293         0.727
  Final Storage ............         0.106         0.009
  Continuity Error (%) .....        -0.002
  
  
  **************************        Volume        Volume
  Flow Routing Continuity        acre-feet      10^6 gal
  **************************     ---------     ---------
  Dry Weather Inflow .......         0.000         0.000
  Wet Weather Inflow .......         8.292         2.702
  Groundwater Inflow .......         0.000         0.000
  RDII Inflow ..............         0.000         0.000
  External Inflow ..........         0.000         0.000
  External Outflow .........         8.247         2.687
  Flooding Loss ............         0.000         0.000
  Evaporation Loss .........         0.000         0.000
  Exfiltration Loss ........         0.000         0.000
  Initial Stored Volume ....         0.000         0.000
  Final Stored Volume ......         0.046         0.015
  Continuity Error (%) .....        -0.014
  
  
  *************************
  Highest Continuity Errors
  *************************
  Node J19 (16.03%)
  Node J37 (-8.01%)
  Node J36 (4.79%)
  Node J14 (2.22%)
  Node J32 (-1.37%)
  
  
  ***************************
  Time-Step Critical Elements
  ***************************
  Link C62 (83.40%)
  Link C58 (15.29%)
  
  
  ********************************
  Highest Flow Instability Indexes
  ********************************
  All links are stable.
  
  
  *********************************
  Most Frequent Nonconverging Nodes
  *********************************
  Node Out (0.06%)
  Node J47 (0.03%)
  Node J15 (0.01%)
  Node J30 (0.01%)
  Node J58 (0.01%)
  
  
  *************************
  Routing Time Step Summary
  *************************
  Minimum Time Step           :     0.50 sec
  Average Time Step           :     2.61 sec
  Maximum Time Step           :    10.00 sec
  % of Time in Steady State   :     0.00
  Average Iterations per Step :     2.01
  % of Steps Not Converging   :     0.06
  Time Step Frequencies       :
     10.000 -  5.493 sec      :     1.02 %
      5.493 -  3.017 sec      :     1.70 %
      3.017 -  1.657 sec      :    93.52 %
      1.657 -  0.910 sec      :     3.55 %
      0.910 -  0.500 sec      :     0.21 %
  
  
  ***************************
  Subcatchment Runoff Summary
  ***************************
  
  ------------------------------------------------------------------------------------------------------------------------------
                            Total      Total      Total      Total     Imperv       Perv      Total       Total     Peak  Runoff
                           Precip      Runon       Evap      Infil     Runoff     Runoff     Runoff      Runoff   Runoff   Coeff
  Subcatchment                 in         in         in         in         in         in         in    10^6 gal      CFS
  ------------------------------------------------------------------------------------------------------------------------------
  A1                         3.59       0.00       0.00       2.52       1.06       0.00       1.06        0.08     3.76   0.296
  A2                         3.59       0.00       0.00       3.36       0.23       0.00       0.23        0.02     1.13   0.063
  A3                         3.59       0.00       0.00       0.94       2.63       0.00       2.63        0.08     3.61   0.732
  A4                         3.59       0.00       0.00       1.27       2.30       0.00       2.30        0.09     3.97   0.642
  A5                         3.59       0.00       0.00       3.59       0.58       0.00       0.00        0.00     0.00   0.000
  A6                         3.59       0.00       0.00       3.32       0.27       0.00       0.27        0.07     3.29   0.074
  A7                         3.59       0.00       0.00       0.80       2.76       0.00       2.76        0.10     4.70   0.769
  A8                         3.59       0.00       0.00       2.76       0.82       0.00       0.82        0.02     1.01   0.229
  A9                         3.59       0.00       0.00       1.81       1.75       0.00       1.75        0.12     5.35   0.489
  A10                        3.59       0.00       0.00       3.48       2.08       0.08       0.08        0.00     0.65   0.023
  A11                        3.59       0.00       0.00       3.56       1.74       0.01       0.01        0.00     0.18   0.002
  A12                        3.59       0.00       0.00       3.59       0.37       0.00       0.00        0.00     0.00   0.000
  A13                        3.59       0.00       0.00       2.22       1.35       0.00       1.35        0.11     5.01   0.377
  A14                        3.59       0.00       0.00       3.59       0.27       0.00       0.00        0.00     0.00   0.000
  A15                        3.59       0.00       0.00       3.59       0.14       0.00       0.00        0.00     0.00   0.000
  A16                        3.59       0.00       0.00       3.59       0.00       0.00       0.00        0.00     0.00   0.000
  A17                        3.59       0.00       0.00       3.59       0.00       0.00       0.00        0.00     0.00   0.000
  A18                        3.59       0.00       0.00       0.78       2.76       0.00       2.76        0.11     4.92   0.769
  A19                        3.59       0.00       0.00       1.53       2.04       0.00       2.04        0.08     3.67   0.569
  A20                        3.59       0.00       0.00       3.59       0.00       0.00       0.00        0.00     0.00   0.000
  A21                        3.59       0.00       0.00       3.58       1.06       0.00       0.00        0.00     0.00   0.000
  A22                        3.59       0.00       0.00       3.59       0.00       0.00       0.00        0.00     0.00   0.000
  A23                        3.59       0.00       0.00       1.57       1.98       0.00       1.98        0.12     5.57   0.553
  A24                        3.59       0.00       0.00       3.59       0.00       0.00       0.00        0.00     0.00   0.000
  A25                        3.59       0.00       0.00       3.59       0.13       0.00       0.00        0.00     0.00   0.000
  A26                        3.59       0.00       0.00       3.59       0.16       0.00       0.00        0.00     0.00   0.000
  A27                        3.59       0.00       0.00       2.48       1.10       0.00       1.10        0.16     7.20   0.307
  A28                        3.59       0.00       0.00       0.37       3.20       0.00       3.20        0.01     0.48   0.890
  A29                        3.59       0.00       0.00       1.06       2.51       0.00       2.51        0.12     5.51   0.699
  A30                        3.59       0.00       0.00       1.43       2.14       0.00       2.14        0.06     2.99   0.595
  A31                        3.59       0.00       0.00       3.59       0.48       0.00       0.00        0.00     0.00   0.000
  A32                        3.59       0.00       0.00       0.95       2.61       0.00       2.61        0.05     2.45   0.727
  A33                        3.59       0.00       0.00       1.97       1.60       0.00       1.60        0.20     9.35   0.445
  A34                        3.59       0.00       0.00       1.18       2.38       0.00       2.38        0.12     5.47   0.662
  A35                        3.59       0.00       0.00       3.58       0.97       0.00       0.00        0.00     0.00   0.000
  A36                        3.59       0.00       0.00       2.69       0.89       0.00       0.89        0.25    11.41   0.248
  A37                        3.59       0.00       0.00       3.58       1.08       0.00       0.00        0.00     0.00   0.000
  A38                        3.59       0.00       0.00       1.90       1.68       0.00       1.68        0.09     4.02   0.467
  A39                        3.59       0.00       0.00       3.58       1.34       0.00       0.00        0.00     0.04   0.000
  A40                        3.59       0.00       0.00       0.18       3.37       0.00       3.37        0.08     3.84   0.939
  A41                        3.59       0.00       0.00       0.89       2.66       0.00       2.66        0.09     4.32   0.740
  A42                        3.59       0.00       0.00       2.12       1.45       0.00       1.45        0.05     2.09   0.405
  A43                        3.59       0.00       0.00       1.04       2.52       0.00       2.52        0.08     3.47   0.702
  A44                        3.59       0.00       0.00       2.56       1.02       0.00       1.02        0.18     8.19   0.285
  A45                        3.59       0.00       0.00       0.77       2.78       0.00       2.78        0.01     0.42   0.775
  A46                        3.59       0.00       0.00       1.63       1.94       0.00       1.94        0.15     6.94   0.540
  
  
  ******************
  Node Depth Summary
  ******************
  
  ---------------------------------------------------------------------------------
                                 Average  Maximum  Maximum  Time of Max    Reported
                                   Depth    Depth      HGL   Occurrence   Max Depth
  Node                 Type         Feet     Feet     Feet  days hr:min        Feet
  ---------------------------------------------------------------------------------
  J1                   JUNCTION     1.28     6.05   653.28     0  12:15        6.02
  J2                   JUNCTION     1.01     3.82   653.99     0  12:16        3.82
  J3                   JUNCTION     0.76     2.44   654.15     0  12:15        2.42
  J4                   JUNCTION     0.54     0.78   655.18     0  12:09        0.78
  J5                   JUNCTION     0.63     1.32   655.22     0  12:15        1.32
  J6                   JUNCTION     0.64     1.34   660.60     0  12:15        1.34
  J7                   JUNCTION     0.70     1.59   661.84     0  12:15        1.59
  J8                   JUNCTION     0.70     1.73   662.67     0  12:15        1.73
  J9                   JUNCTION     0.63     1.71   664.61     0  12:15        1.71
  J10                  JUNCTION     0.65     1.49   663.74     0  12:15        1.49
  J11                  JUNCTION     0.17     1.03   665.18     0  12:15        1.03
  J12                  JUNCTION     0.64     1.39   665.71     0  12:15        1.39
  J13                  JUNCTION     0.00     0.00   665.97     0  00:00        0.00
  J14                  JUNCTION     1.17     5.95   653.31     0  12:15        5.93
  J15                  JUNCTION     0.61     2.45   670.85     0  12:10        2.11
  J16                  JUNCTION     0.62     1.30   666.82     0  12:15        1.30
  J17                  JUNCTION     0.65     1.63   668.17     0  12:15        1.63
  J18                  JUNCTION     0.00     0.24   669.13     0  12:16        0.24
  J19                  JUNCTION     0.25     0.61   670.72     0  12:16        0.61
  J20                  JUNCTION     0.00     0.00   670.91     0  00:00        0.00
  J21                  JUNCTION     0.26     0.62   672.62     0  12:15        0.62
  J22                  JUNCTION     0.26     0.68   673.73     0  12:15        0.68
  J23                  JUNCTION     0.49     5.00   653.30     0  12:17        4.99
  J24                  JUNCTION     0.85     4.88   653.37     0  12:19        4.84
  J25                  JUNCTION     0.25     3.48   653.40     0  12:19        3.46
  J26                  JUNCTION     0.21     2.99   653.45     0  12:19        2.99
  J27                  JUNCTION     0.00     0.00   661.24     0  00:00        0.00
  J28                  JUNCTION     0.69     3.27   653.47     0  12:18        3.26
  J29                  JUNCTION     0.90     3.18   653.49     0  12:19        3.18
  J30                  JUNCTION     0.29     2.40   653.40     0  12:19        2.38
  J31                  JUNCTION     0.84     3.09   653.51     0  12:19        3.08
  J32                  JUNCTION     0.40     2.16   653.67     0  12:18        2.14
  J33                  JUNCTION     0.68     2.92   653.54     0  12:19        2.89
  J34                  JUNCTION     0.36     2.75   653.56     0  12:19        2.75
  J35                  JUNCTION     0.31     2.54   653.56     0  12:19        2.54
  J36                  JUNCTION     0.27     1.90   653.65     0  12:20        1.87
  J37                  JUNCTION     0.26     1.50   653.69     0  12:21        1.50
  J38                  JUNCTION     0.66     1.46   654.57     0  12:14        1.46
  J39                  JUNCTION     0.00     0.00   653.84     0  00:00        0.00
  J40                  JUNCTION     0.00     0.00   653.90     0  00:00        0.00
  J41                  JUNCTION     0.00     0.00   657.14     0  00:00        0.00
  J42                  JUNCTION     0.00     0.00   654.47     0  00:00        0.00
  J43                  JUNCTION     0.99     3.68   656.27     0  12:15        3.68
  J44                  JUNCTION     0.31     1.82   657.38     0  12:15        1.82
  J45                  JUNCTION     0.52     0.63   670.95     0  12:15        0.63
  J46                  JUNCTION     0.59     1.06   670.26     0  12:15        1.06
  J47                  JUNCTION     0.65     4.95   668.41     0  12:06        3.49
  J48                  JUNCTION     0.58     1.01   677.26     0  12:15        1.01
  J49                  JUNCTION     0.58     0.97   673.09     0  12:15        0.97
  J50                  JUNCTION     0.15     0.84   674.90     0  12:15        0.84
  J51                  JUNCTION     0.00     0.00   679.91     0  00:00        0.00
  J52                  JUNCTION     0.65     1.39   675.87     0  12:15        1.39
  J53                  JUNCTION     0.79     2.17   662.15     0  12:15        2.17
  J54                  JUNCTION     0.75     1.95   663.61     0  12:15        1.95
  J55                  JUNCTION     0.64     1.35   669.75     0  12:15        1.35
  J56                  JUNCTION     0.65     1.39   674.26     0  12:15        1.39
  J57                  JUNCTION     0.26     0.68   674.26     0  12:12        0.68
  J58                  JUNCTION     0.69     1.74   663.79     0  12:15        1.74
  J59                  JUNCTION     0.71     1.72   666.89     0  12:15        1.72
  J69                  JUNCTION     0.61     1.23   674.16     0  12:15        1.23
  J60                  JUNCTION     0.58     1.01   677.19     0  12:15        1.01
  J61                  JUNCTION     0.57     0.93   672.08     0  12:15        0.93
  J62                  JUNCTION     0.19     1.10   673.63     0  12:15        1.10
  J63                  JUNCTION     0.17     1.00   673.91     0  12:15        1.00
  J64                  JUNCTION     0.59     1.09   676.85     0  12:15        1.09
  J65                  JUNCTION     0.59     1.02   675.41     0  12:15        1.02
  J66                  JUNCTION     0.03     0.16   681.66     0  12:15        0.16
  J68                  JUNCTION     0.54     0.83   683.45     0  12:15        0.83
  J70                  JUNCTION     0.00     0.00   684.64     0  00:00        0.00
  Out                  OUTFALL      0.79     5.50   653.12     0  12:11        5.50
  
  
  *******************
  Node Inflow Summary
  *******************
  
  -------------------------------------------------------------------------------------------------
                                  Maximum  Maximum                  Lateral       Total        Flow
                                  Lateral    Total  Time of Max      Inflow      Inflow     Balance
                                   Inflow   Inflow   Occurrence      Volume      Volume       Error
  Node                 Type           CFS      CFS  days hr:min    10^6 gal    10^6 gal     Percent
  -------------------------------------------------------------------------------------------------
  J1                   JUNCTION      0.00   105.44     0  12:13           0        2.78       0.242
  J2                   JUNCTION      0.00   106.08     0  12:14           0        2.31      -0.742
  J3                   JUNCTION      3.76     9.89     0  12:15      0.0816       0.215       0.495
  J4                   JUNCTION      1.13     1.13     0  12:15      0.0245      0.0245       0.362
  J5                   JUNCTION      5.01     5.01     0  12:15       0.109       0.109       0.120
  J6                   JUNCTION      0.00    19.00     0  12:15           0       0.406       0.030
  J7                   JUNCTION      3.61     3.61     0  12:15      0.0785      0.0785       0.115
  J8                   JUNCTION      0.00    15.45     0  12:15           0       0.328       0.044
  J9                   JUNCTION      3.97     3.97     0  12:15      0.0863      0.0863       0.099
  J10                  JUNCTION      0.00    11.50     0  12:15           0       0.242       0.066
  J11                  JUNCTION      0.00    11.53     0  12:15           0       0.242       0.028
  J12                  JUNCTION      1.01     6.87     0  12:15      0.0219        0.14       0.052
  J13                  JUNCTION      0.00     0.00     0  00:00           0           0       0.000 gal
  J14                  JUNCTION      3.29    36.00     0  12:25      0.0715       0.541       2.274
  J15                  JUNCTION      4.70     4.70     0  12:15       0.102       0.102       0.060
  J16                  JUNCTION      0.00     5.35     0  12:15           0       0.116       0.061
  J17                  JUNCTION      5.35     5.35     0  12:15       0.116       0.116       0.082
  J18                  JUNCTION      0.00     0.77     0  12:15           0      0.0025      -0.149
  J19                  JUNCTION      0.00     0.16     0  12:15           0    0.000306      19.095
  J20                  JUNCTION      0.00     0.00     0  00:00           0           0       0.000 gal
  J21                  JUNCTION      0.18     0.18     0  12:15    0.000352    0.000352      15.240
  J22                  JUNCTION      0.65     0.65     0  12:15     0.00229     0.00229       2.094
  J23                  JUNCTION      0.00    27.67     0  12:23           0       0.414       0.293
  J24                  JUNCTION      0.00    24.55     0  12:23           0       0.358       0.085
  J25                  JUNCTION      0.00    22.57     0  12:23           0        0.34       0.050
  J26                  JUNCTION      0.00    20.48     0  12:23           0       0.333       0.022
  J27                  JUNCTION      0.00     0.00     0  00:00           0           0       0.000 gal
  J28                  JUNCTION      0.00    19.81     0  12:23           0       0.329       0.169
  J29                  JUNCTION      0.00    19.12     0  12:23           0       0.327       0.233
  J30                  JUNCTION      0.00     0.55     0  12:12           0    0.000273      15.140
  J31                  JUNCTION      4.92    16.55     0  12:23       0.107       0.332       0.166
  J32                  JUNCTION      0.00     7.61     0  12:16           0       0.122      -1.349
  J33                  JUNCTION      3.67    10.08     0  12:15      0.0798       0.114       0.082
  J34                  JUNCTION      0.00     8.88     0  12:15           0      0.0329       0.759
  J35                  JUNCTION      0.00     0.07     0  12:03           0    0.000245      19.489
  J36                  JUNCTION      0.00     5.59     0  12:16           0      0.0159       5.026
  J37                  JUNCTION      0.00     3.19     0  12:18           0      0.0044      -7.414
  J38                  JUNCTION      5.57     5.57     0  12:15       0.123       0.123       1.985
  J39                  JUNCTION      0.00     0.00     0  00:00           0           0       0.000 gal
  J40                  JUNCTION      0.00     0.00     0  00:00           0           0       0.000 gal
  J41                  JUNCTION      0.00     0.00     0  00:00           0           0       0.000 gal
  J42                  JUNCTION      0.00     0.00     0  00:00           0           0       0.000 gal
  J43                  JUNCTION      7.20    77.93     0  12:15       0.157         1.7       0.145
  J44                  JUNCTION      0.00    54.94     0  12:15           0        1.19       0.091
  J45                  JUNCTION      0.48     0.48     0  12:15      0.0104      0.0104       0.467
  J46                  JUNCTION      5.51     8.51     0  12:15        0.12       0.185       0.038
  J47                  JUNCTION      6.94     6.94     0  12:15       0.151       0.151       0.049
  J48                  JUNCTION      2.99     2.99     0  12:15       0.065       0.065       0.120
  J49                  JUNCTION      2.45     7.91     0  12:15      0.0531       0.172       0.136
  J50                  JUNCTION      0.00     5.47     0  12:15           0       0.119       0.103
  J51                  JUNCTION      0.00     0.00     0  00:00           0           0       0.000 gal
  J52                  JUNCTION      5.47     5.47     0  12:15       0.119       0.119       0.068
  J53                  JUNCTION     11.41    47.10     0  12:15       0.248        1.02       0.027
  J54                  JUNCTION      0.00    35.70     0  12:15           0       0.775       0.056
  J55                  JUNCTION      0.00     9.34     0  12:15           0       0.203       0.047
  J56                  JUNCTION      9.35     9.36     0  12:14       0.203       0.204       0.203
  J57                  JUNCTION      0.00     0.11     0  12:08           0    0.000213     -17.647
  J58                  JUNCTION      4.02    26.37     0  12:15      0.0874        0.57      -0.375
  J59                  JUNCTION      0.00    22.36     0  12:15           0       0.484       0.362
  J69                  JUNCTION      3.84     3.84     0  12:15      0.0833      0.0833       0.084
  J60                  JUNCTION      4.32     4.32     0  12:15      0.0938      0.0938       0.083
  J61                  JUNCTION      0.04    14.20     0  12:15    4.81e-05       0.307       0.015
  J62                  JUNCTION      3.47    14.16     0  12:15      0.0753       0.307       0.026
  J63                  JUNCTION      0.00    10.70     0  12:15           0       0.232       0.005
  J64                  JUNCTION      2.09     2.09     0  12:15      0.0454      0.0454       0.129
  J65                  JUNCTION      8.19     8.61     0  12:15       0.178       0.187       0.029
  J66                  JUNCTION      0.00     0.42     0  12:15           0     0.00901       0.081
  J68                  JUNCTION      0.42     0.42     0  12:15     0.00907     0.00907       0.622
  J70                  JUNCTION      0.00     0.00     0  00:00           0           0       0.000 gal
  Out                  OUTFALL       0.00    95.92     0  12:21           0        2.69       0.000
  
  
  **********************
  Node Surcharge Summary
  **********************
  
  Surcharging occurs when water rises above the top of the highest conduit.
  ---------------------------------------------------------------------
                                               Max. Height   Min. Depth
                                   Hours       Above Crown    Below Rim
  Node                 Type      Surcharged           Feet         Feet
  ---------------------------------------------------------------------
  J1                   JUNCTION        0.04          0.048        9.122
  J9                   JUNCTION        0.15          0.208        2.792
  J14                  JUNCTION        0.08          0.248        6.752
  J15                  JUNCTION        0.09          1.117        0.000
  J30                  JUNCTION        0.21          0.901        0.299
  J35                  JUNCTION        0.22          1.044        0.946
  J47                  JUNCTION        0.15          3.450        0.000
  
  
  *********************
  Node Flooding Summary
  *********************
  
  Flooding refers to all water that overflows a node, whether it ponds or not.
  --------------------------------------------------------------------------
                                                             Total   Maximum
                                 Maximum   Time of Max       Flood    Ponded
                        Hours       Rate    Occurrence      Volume     Depth
  Node                 Flooded       CFS   days hr:min    10^6 gal      Feet
  --------------------------------------------------------------------------
  J15                     0.01      0.22      0  12:10       0.000     0.000
  J47                     0.01      0.29      0  12:06       0.000     0.000
  
  
  ***********************
  Outfall Loading Summary
  ***********************
  
  -----------------------------------------------------------
                         Flow       Avg       Max       Total
                         Freq      Flow      Flow      Volume
  Outfall Node           Pcnt       CFS       CFS    10^6 gal
  -----------------------------------------------------------
  Out                   98.41      5.90     95.92       2.687
  -----------------------------------------------------------
  System                98.41      5.90     95.92       2.687
  
  
  ********************
  Link Flow Summary
  ********************
  
  -----------------------------------------------------------------------------
                                 Maximum  Time of Max   Maximum    Max/    Max/
                                  |Flow|   Occurrence   |Veloc|    Full    Full
  Link                 Type          CFS  days hr:min    ft/sec    Flow   Depth
  -----------------------------------------------------------------------------
  C1                   CONDUIT     95.92     0  12:21      4.11    1.12    1.00
  C2                   CONDUIT    105.44     0  12:13      6.31    0.62    0.80
  C3                   CONDUIT      9.83     0  12:14      4.47    1.05    0.98
  C4                   CONDUIT      1.13     0  12:09      4.87    0.08    0.27
  C5                   CONDUIT      5.01     0  12:15      3.92    0.58    0.77
  C6                   CONDUIT     19.00     0  12:15      5.87    0.25    0.67
  C7                   CONDUIT      3.61     0  12:15      3.69    1.77    0.74
  C8                   CONDUIT     15.41     0  12:15      6.42    0.49    0.49
  C9                   CONDUIT      3.97     0  12:15      5.24    1.20    0.92
  C10                  CONDUIT     11.51     0  12:15      7.06    0.49    0.52
  C11                  CONDUIT     11.50     0  12:15      7.10    0.52    0.51
  C12                  CONDUIT      6.85     0  12:15      4.71    0.39    0.48
  C13                  CONDUIT      0.00     0  00:00      0.00    0.00    0.25
  C14                  CONDUIT     40.88     0  12:24      2.39    1.16    1.00
  C15                  CONDUIT      4.70     0  12:15      9.34    1.09    1.00
  C16                  CONDUIT      5.35     0  12:15      5.60    0.56    0.53
  C17                  CONDUIT      5.35     0  12:15      4.98    1.10    0.83
  C18                  CONDUIT      0.70     0  12:16      3.31    0.03    0.12
  C19                  CONDUIT      0.16     0  12:16      1.19    0.01    0.09
  C20                  CONDUIT      0.00     0  00:00      0.00    0.00    0.00
  C21                  CONDUIT      0.16     0  12:15      2.35    0.01    0.08
  C22                  CONDUIT      0.64     0  12:15      6.53    0.07    0.18
  C23                  CONDUIT     35.59     0  12:25      2.24    1.04    1.00
  C24                  CONDUIT     27.67     0  12:23      1.84    0.48    0.93
  C25                  CONDUIT     24.55     0  12:23      2.24    0.19    0.78
  C26                  CONDUIT     22.57     0  12:23      4.15    0.13    0.64
  C27                  CONDUIT      0.00     0  00:00      0.00    0.00    0.50
  C28                  CONDUIT     20.48     0  12:23      4.98    0.11    0.58
  C29                  CONDUIT     19.81     0  12:23      3.62    0.35    0.53
  C30                  CONDUIT      0.55     0  12:12      1.16    0.11    1.00
  C31                  CONDUIT     19.12     0  12:23      2.70    0.34    0.53
  C32                  CONDUIT      6.15     0  12:19      1.96    0.21    0.75
  C33                  CONDUIT     11.57     0  12:23      1.77    0.20    0.62
  C34                  CONDUIT      9.31     0  12:23      1.59    0.16    0.58
  C35                  CONDUIT      0.07     0  12:29      0.48    0.04    1.00
  C36                  CONDUIT      7.25     0  12:22      1.70    0.09    0.45
  C37                  CONDUIT      3.80     0  12:22      2.23    0.07    0.34
  C38                  CONDUIT      5.67     0  12:14      3.98    0.46    0.66
  C39                  CONDUIT      0.00     0  00:00      0.00    0.00    0.17
  C40                  CONDUIT      0.00     0  00:00      0.00    0.00    0.00
  C41                  CONDUIT      0.00     0  00:00      0.00    0.00    0.00
  C42                  CONDUIT      0.00     0  00:00      0.00    0.00    0.25
  C43                  CONDUIT     77.56     0  12:15      6.46    0.85    0.72
  C44                  CONDUIT     54.83     0  12:15      6.06    0.34    0.56
  C45                  CONDUIT      0.48     0  12:15      7.62    0.04    0.13
  C46                  CONDUIT      8.51     0  12:15     14.08    0.30    0.37
  C47                  CONDUIT      6.94     0  12:15      8.83    1.22    1.00
  C48                  CONDUIT      2.99     0  12:15      6.37    0.35    0.41
  C49                  CONDUIT      7.90     0  12:15     11.22    0.08    0.26
  C50                  CONDUIT      5.46     0  12:15      4.42    0.37    0.42
  C51                  CONDUIT      0.00     0  00:00      0.00    0.00    0.17
  C52                  CONDUIT      5.47     0  12:15      4.19    0.41    0.43
  C53                  CONDUIT     47.03     0  12:15      8.25    0.29    0.39
  C54                  CONDUIT     35.70     0  12:15      8.61    0.28    0.37
  C55                  CONDUIT      9.34     0  12:15      6.40    0.25    0.34
  C56                  CONDUIT      9.34     0  12:15      6.95    0.41    0.44
  C57                  CONDUIT      0.12     0  12:16      0.24    0.01    0.24
  C58                  CONDUIT     26.36     0  12:15      7.82    0.19    0.38
  C59                  CONDUIT     22.36     0  12:15      7.44    0.26    0.35
  C60                  CONDUIT      3.84     0  12:15      6.32    0.88    0.73
  C61                  CONDUIT      4.32     0  12:15      9.07    0.36    0.41
  C62                  CONDUIT     14.20     0  12:15     10.15    0.04    0.26
  C63                  CONDUIT     14.16     0  12:15      6.06    0.29    0.37
  C64                  CONDUIT     10.70     0  12:15      4.86    0.22    0.35
  C65                  CONDUIT      2.09     0  12:15      4.33    0.66    0.59
  C66                  CONDUIT      8.61     0  12:15      6.68    0.07    0.24
  C67                  CONDUIT      0.42     0  12:15      2.92    0.01    0.05
  C69                  CONDUIT      0.42     0  12:15      2.59    0.47    0.47
  C70                  CONDUIT      0.00     0  00:00      0.00    0.00    0.03
  
  
  ***************************
  Flow Classification Summary
  ***************************
  
  -------------------------------------------------------------------------------------
                      Adjusted    ---------- Fraction of Time in Flow Class ---------- 
                       /Actual         Up    Down  Sub   Sup   Up    Down  Norm  Inlet 
  Conduit               Length    Dry  Dry   Dry   Crit  Crit  Crit  Crit  Ltd   Ctrl  
  -------------------------------------------------------------------------------------
  C1                      1.00   0.05  0.00  0.00  0.95  0.00  0.00  0.00  0.02  0.00
  C2                      1.00   0.04  0.00  0.00  0.95  0.00  0.00  0.01  0.94  0.00
  C3                      1.00   0.03  0.00  0.00  0.01  0.00  0.00  0.95  0.00  0.00
  C4                      1.00   0.05  0.00  0.00  0.00  0.00  0.00  0.94  0.01  0.00
  C5                      1.00   0.03  0.00  0.00  0.02  0.01  0.00  0.94  0.02  0.00
  C6                      1.00   0.04  0.00  0.00  0.14  0.76  0.00  0.06  0.90  0.00
  C7                      1.00   0.04  0.00  0.00  0.00  0.00  0.00  0.96  0.00  0.00
  C8                      1.00   0.04  0.00  0.00  0.00  0.00  0.00  0.96  0.00  0.00
  C9                      1.00   0.03  0.00  0.00  0.00  0.00  0.00  0.97  0.00  0.00
  C10                     1.00   0.05  0.00  0.00  0.00  0.01  0.00  0.94  0.00  0.00
  C11                     1.00   0.04  0.00  0.00  0.00  0.00  0.00  0.96  0.00  0.00
  C12                     1.00   0.04  0.00  0.00  0.95  0.01  0.00  0.00  0.94  0.00
  C13                     1.00   0.96  0.04  0.00  0.00  0.00  0.00  0.00  0.00  0.00
  C14                     1.00   0.03  0.00  0.00  0.95  0.00  0.00  0.02  0.00  0.00
  C15                     1.00   0.04  0.00  0.00  0.00  0.00  0.00  0.96  0.00  0.00
  C16                     1.00   0.06  0.00  0.00  0.00  0.00  0.00  0.94  0.00  0.00
  C17                     1.00   0.05  0.00  0.00  0.00  0.00  0.00  0.95  0.00  0.00
  C18                     1.00   0.51  0.00  0.00  0.00  0.00  0.00  0.49  0.00  0.00
  C19                     1.00   0.51  0.48  0.00  0.02  0.00  0.00  0.00  0.49  0.00
  C20                     1.00   1.00  0.00  0.00  0.00  0.00  0.00  0.00  0.00  0.00
  C21                     1.00   0.51  0.00  0.00  0.00  0.00  0.00  0.49  0.00  0.00
  C22                     1.00   0.51  0.00  0.00  0.00  0.00  0.00  0.49  0.00  0.00
  C23                     1.00   0.07  0.00  0.00  0.93  0.00  0.00  0.00  0.18  0.00
  C24                     1.00   0.07  0.00  0.00  0.93  0.00  0.00  0.00  0.87  0.00
  C25                     1.00   0.06  0.00  0.00  0.93  0.00  0.00  0.01  0.91  0.00
  C26                     1.00   0.06  0.00  0.00  0.94  0.00  0.00  0.00  0.91  0.00
  C27                     1.00   0.99  0.01  0.00  0.00  0.00  0.00  0.00  0.00  0.00
  C28                     1.00   0.06  0.00  0.00  0.88  0.06  0.00  0.00  0.78  0.00
  C29                     1.00   0.06  0.00  0.00  0.54  0.00  0.00  0.40  0.00  0.00
  C30                     1.00   0.51  0.00  0.00  0.02  0.00  0.00  0.48  0.00  0.00
  C31                     1.00   0.04  0.00  0.00  0.95  0.00  0.00  0.01  0.01  0.00
  C32                     1.00   0.04  0.01  0.00  0.95  0.00  0.00  0.00  0.94  0.00
  C33                     1.00   0.04  0.00  0.00  0.96  0.00  0.00  0.01  0.66  0.00
  C34                     1.00   0.04  0.82  0.00  0.14  0.00  0.01  0.00  0.42  0.00
  C35                     1.00   0.47  0.02  0.00  0.06  0.00  0.00  0.44  0.47  0.00
  C36                     1.00   0.86  0.08  0.00  0.05  0.00  0.00  0.00  0.48  0.00
  C37                     1.00   0.95  0.02  0.00  0.03  0.00  0.00  0.00  0.48  0.00
  C38                     1.00   0.04  0.00  0.00  0.71  0.01  0.00  0.24  0.02  0.00
  C39                     1.00   0.97  0.03  0.00  0.00  0.00  0.00  0.00  0.00  0.00
  C40                     1.00   1.00  0.00  0.00  0.00  0.00  0.00  0.00  0.00  0.00
  C41                     1.00   1.00  0.00  0.00  0.00  0.00  0.00  0.00  0.00  0.00
  C42                     1.00   0.97  0.03  0.00  0.00  0.00  0.00  0.00  0.00  0.00
  C43                     1.00   0.03  0.00  0.00  0.96  0.00  0.00  0.01  0.93  0.00
  C44                     1.00   0.03  0.00  0.00  0.97  0.00  0.00  0.00  0.97  0.00
  C45                     1.00   0.05  0.00  0.00  0.00  0.00  0.00  0.95  0.00  0.00
  C46                     1.00   0.03  0.00  0.00  0.00  0.00  0.00  0.97  0.00  0.00
  C47                     1.00   0.04  0.00  0.00  0.00  0.00  0.00  0.96  0.00  0.00
  C48                     1.00   0.04  0.00  0.00  0.00  0.00  0.00  0.96  0.00  0.00
  C49                     1.00   0.05  0.00  0.00  0.00  0.01  0.00  0.94  0.01  0.00
  C50                     1.00   0.04  0.00  0.00  0.00  0.00  0.00  0.96  0.00  0.00
  C51                     1.00   0.99  0.01  0.00  0.00  0.00  0.00  0.00  0.00  0.00
  C52                     1.00   0.04  0.00  0.00  0.96  0.00  0.00  0.00  0.07  0.00
  C53                     1.00   0.03  0.00  0.00  0.01  0.96  0.00  0.00  0.93  0.00
  C54                     1.00   0.04  0.00  0.00  0.00  0.01  0.00  0.95  0.00  0.00
  C55                     1.00   0.04  0.00  0.00  0.00  0.00  0.00  0.96  0.00  0.00
  C56                     1.00   0.03  0.00  0.00  0.00  0.00  0.00  0.97  0.00  0.00
  C57                     1.00   0.33  0.55  0.00  0.12  0.00  0.00  0.00  0.49  0.00
  C58                     1.00   0.03  0.00  0.00  0.00  0.96  0.00  0.01  0.84  0.00
  C59                     1.00   0.03  0.01  0.00  0.01  0.03  0.00  0.92  0.01  0.00
  C60                     1.00   0.05  0.00  0.00  0.00  0.00  0.00  0.95  0.00  0.00
  C61                     1.00   0.05  0.00  0.00  0.00  0.00  0.00  0.95  0.00  0.00
  C62                     1.00   0.04  0.00  0.00  0.00  0.39  0.00  0.57  0.38  0.00
  C63                     1.00   0.01  0.00  0.00  0.00  0.00  0.00  0.99  0.00  0.00
  C64                     1.00   0.01  0.02  0.00  0.97  0.00  0.00  0.00  0.93  0.00
  C65                     1.00   0.05  0.00  0.00  0.00  0.00  0.00  0.95  0.00  0.00
  C66                     1.00   0.03  0.00  0.00  0.00  0.08  0.00  0.89  0.08  0.00
  C67                     1.00   0.08  0.00  0.00  0.00  0.00  0.00  0.92  0.00  0.00
  C69                     1.00   0.08  0.00  0.00  0.00  0.00  0.00  0.92  0.00  0.00
  C70                     1.00   0.08  0.92  0.00  0.00  0.00  0.00  0.00  0.00  0.00
  
  
  *************************
  Conduit Surcharge Summary
  *************************
  
  ----------------------------------------------------------------------------
                                                           Hours        Hours 
                         --------- Hours Full --------   Above Full   Capacity
  Conduit                Both Ends  Upstream  Dnstream   Normal Flow   Limited
  ----------------------------------------------------------------------------
  C1                          0.04      0.04      0.14      0.16         0.04
  C2                          0.01      0.01      0.04      0.01         0.01
  C3                          0.01      0.01      0.03      0.11         0.01
  C5                          0.01      0.01      0.12      0.01         0.01
  C6                          0.01      0.01      0.20      0.01         0.01
  C7                          0.01      0.01      0.01      0.25         0.01
  C9                          0.01      0.15      0.01      0.20         0.01
  C14                         0.12      0.12      0.13      0.05         0.01
  C15                         0.09      0.09      0.17      0.17         0.09
  C17                         0.01      0.01      0.01      0.15         0.01
  C23                         0.01      0.01      0.08      0.03         0.01
  C30                         0.21      0.21      0.28      0.01         0.01
  C35                         0.22      0.22      0.28      0.01         0.01
  C47                         0.14      0.15      0.14      0.18         0.14
  

  Analysis begun on:  Tue Jun 23 20:52:29 2026
  Analysis ended on:  Tue Jun 23 20:52:31 2026
  Total elapsed time: 00:00:02