
  EPA STORM WATER MANAGEMENT MODEL - VERSION 5.2 (Build 5.2.4)
  ------------------------------------------------------------

  Existing System Conditions 
  DWF updated at Racks 16 and 17 to represent flow monitoring data 
  
  ERROR 108: ambiguous outlet ID name for Subcatchment 10.
  
  ERROR 108: ambiguous outlet ID name for Subcatchment 1020-31.
  
  ERROR 108: ambiguous outlet ID name for Subcatchment 1021-08A.
  
  ERROR 108: ambiguous outlet ID name for Subcatchment 1021-08B.
  
  ERROR 108: ambiguous outlet ID name for Subcatchment 1021-08C.
  
  ERROR 108: ambiguous outlet ID name for Subcatchment 1021-08D.
  
  ERROR 108: ambiguous outlet ID name for Subcatchment 1074_15.
  
  ERROR 108: ambiguous outlet ID name for Subcatchment 11.
  
  ERROR 108: ambiguous outlet ID name for Subcatchment 1172-21.
  
  ERROR 108: ambiguous outlet ID name for Subcatchment 1172-22A.
  
  ERROR 108: ambiguous outlet ID name for Subcatchment 1172-22B.
  
  ERROR 108: ambiguous outlet ID name for Subcatchment 1172-22C.
  
  ERROR 108: ambiguous outlet ID name for Subcatchment 1172-22D.
  
  ERROR 108: ambiguous outlet ID name for Subcatchment 1172-22E.
  
  ERROR 108: ambiguous outlet ID name for Subcatchment 1172-22F.
  
  ERROR 108: ambiguous outlet ID name for Subcatchment 1174-32A.
  
  ERROR 108: ambiguous outlet ID name for Subcatchment 1174-32C.
  
  ERROR 108: ambiguous outlet ID name for Subcatchment 12.
  
  ERROR 108: ambiguous outlet ID name for Subcatchment 1224-19A.
  
  ERROR 108: ambiguous outlet ID name for Subcatchment 1224-19B.
  
  ERROR 108: ambiguous outlet ID name for Subcatchment 13.
  
  ERROR 108: ambiguous outlet ID name for Subcatchment 14.
  
  ERROR 108: ambiguous outlet ID name for Subcatchment 1433.
  
  ERROR 108: ambiguous outlet ID name for Subcatchment 2.
  
  ERROR 108: ambiguous outlet ID name for Subcatchment 21.
  
  ERROR 108: ambiguous outlet ID name for Subcatchment 2101.
  
  ERROR 108: ambiguous outlet ID name for Subcatchment 22.
  
  ERROR 108: ambiguous outlet ID name for Subcatchment 25.
  
  ERROR 108: ambiguous outlet ID name for Subcatchment 26.
  
  ERROR 108: ambiguous outlet ID name for Subcatchment 27.
  
  ERROR 108: ambiguous outlet ID name for Subcatchment 28.
  
  ERROR 108: ambiguous outlet ID name for Subcatchment 29.
  
  ERROR 108: ambiguous outlet ID name for Subcatchment 290791.
  
  ERROR 108: ambiguous outlet ID name for Subcatchment 3.
  
  ERROR 108: ambiguous outlet ID name for Subcatchment 30.
  
  ERROR 108: ambiguous outlet ID name for Subcatchment 302106.
  
  ERROR 108: ambiguous outlet ID name for Subcatchment 303269.
  
  ERROR 108: ambiguous outlet ID name for Subcatchment 303341.
  
  ERROR 108: ambiguous outlet ID name for Subcatchment 303478.
  
  ERROR 108: ambiguous outlet ID name for Subcatchment 31.
  
  ERROR 108: ambiguous outlet ID name for Subcatchment 33.
  
  ERROR 108: ambiguous outlet ID name for Subcatchment 34.
  
  ERROR 108: ambiguous outlet ID name for Subcatchment 36.
  
  ERROR 108: ambiguous outlet ID name for Subcatchment 491.
  
  ERROR 108: ambiguous outlet ID name for Subcatchment 5.
  
  ERROR 108: ambiguous outlet ID name for Subcatchment 522164.
  
  ERROR 108: ambiguous outlet ID name for Subcatchment 522365.
  
  ERROR 108: ambiguous outlet ID name for Subcatchment 6.
  
  ERROR 108: ambiguous outlet ID name for Subcatchment 687.
  
  ERROR 108: ambiguous outlet ID name for Subcatchment 7.
  
  ERROR 108: ambiguous outlet ID name for Subcatchment 8.
  
  ERROR 108: ambiguous outlet ID name for Subcatchment 874-13.
  
  ERROR 108: ambiguous outlet ID name for Subcatchment 9.
  
  ERROR 108: ambiguous outlet ID name for Subcatchment 926-19A.
  
  ERROR 108: ambiguous outlet ID name for Subcatchment 926-19B.
  
  ERROR 108: ambiguous outlet ID name for Subcatchment 974-19A.
  
  ERROR 108: ambiguous outlet ID name for Subcatchment 974-19B.
  
  ERROR 108: ambiguous outlet ID name for Subcatchment 974-19C.
  
  ERROR 108: ambiguous outlet ID name for Subcatchment 974-19D.
  
  ERROR 108: ambiguous outlet ID name for Subcatchment 974-19E.
  
  ERROR 108: ambiguous outlet ID name for Subcatchment 974-19Faaa.
  
  ERROR 108: ambiguous outlet ID name for Subcatchment Babb.
  
  ERROR 108: ambiguous outlet ID name for Subcatchment CBI.
  
  ERROR 108: ambiguous outlet ID name for Subcatchment COMB84MH6.
  
  ERROR 108: ambiguous outlet ID name for Subcatchment EASTWOOD.
  
  ERROR 108: ambiguous outlet ID name for Subcatchment Hawkins.
  
  ERROR 108: ambiguous outlet ID name for Subcatchment LAKEMORE.
  
  ERROR 108: ambiguous outlet ID name for Subcatchment Main.
  
  ERROR 108: ambiguous outlet ID name for Subcatchment ROOSEVELT.
  
  ERROR 108: ambiguous outlet ID name for Subcatchment SPRNGFLD.
  
  ERROR 108: ambiguous outlet ID name for Subcatchment SRTI.
  
  ERROR 108: ambiguous outlet ID name for Subcatchment T1.
  
  ERROR 108: ambiguous outlet ID name for Subcatchment T2.
  
  ERROR 108: ambiguous outlet ID name for Subcatchment TALLMDGE.
  
  ERROR 108: ambiguous outlet ID name for Subcatchment WL_MH2.
  
  ERROR 108: ambiguous outlet ID name for Subcatchment WLR_MH2.
  WARNING 02: maximum depth increased for Node Bsn3140_1

  Analysis begun on:  Tue Jun 23 20:53:52 2026
  Analysis ended on:  Tue Jun 23 20:53:52 2026
  Total elapsed time: < 1 sec