
  EPA STORM WATER MANAGEMENT MODEL - VERSION 5.2 (Build 5.2.4)
  ------------------------------------------------------------

  WARNING 04: minimum elevation drop used for Conduit 19000122
  WARNING 04: minimum elevation drop used for Conduit 19000152
  WARNING 02: maximum depth increased for Node 10001373
  
  ****************
  Analysis Options
  ****************
  Flow Units ............... LPS
  Process Models:
    Rainfall/Runoff ........ YES
    RDII ................... NO
    Snowmelt ............... NO
    Groundwater ............ NO
    Flow Routing ........... YES
    Ponding Allowed ........ NO
    Water Quality .......... NO
  Infiltration Method ...... CURVE_NUMBER
  Flow Routing Method ...... DYNWAVE
  Surcharge Method ......... EXTRAN
  Starting Date ............ 01/01/2002 00:00:00
  Ending Date .............. 01/03/2002 04:00:00
  Antecedent Dry Days ...... 5.0
  Report Time Step ......... 00:01:00
  Wet Time Step ............ 00:01:00
  Dry Time Step ............ 00:01:00
  Routing Time Step ........ 60.00 sec
  Variable Time Step ....... YES
  Maximum Trials ........... 8
  Number of Threads ........ 1
  Head Tolerance ........... 0.001500 m
  
  
  **************************        Volume         Depth
  Runoff Quantity Continuity     hectare-m            mm
  **************************     ---------       -------
  Total Precipitation ......         1.200        25.000
  Evaporation Loss .........         0.000         0.000
  Infiltration Loss ........         0.980        20.413
  Surface Runoff ...........         0.178         3.703
  Final Storage ............         0.042         0.885
  Continuity Error (%) .....        -0.002
  
  
  **************************        Volume        Volume
  Flow Routing Continuity        hectare-m      10^6 ltr
  **************************     ---------     ---------
  Dry Weather Inflow .......         3.931        39.310
  Wet Weather Inflow .......         0.178         1.777
  Groundwater Inflow .......         0.000         0.000
  RDII Inflow ..............         0.000         0.000
  External Inflow ..........         0.000         0.000
  External Outflow .........         4.066        40.656
  Flooding Loss ............         0.000         0.000
  Evaporation Loss .........         0.000         0.000
  Exfiltration Loss ........         0.000         0.000
  Initial Stored Volume ....         0.025         0.250
  Final Stored Volume ......         0.065         0.653
  Continuity Error (%) .....         0.069
  
  
  *************************
  Highest Continuity Errors
  *************************
  Node 10000400_1B (100.00%)
  Node 10000400_1A (1.16%)
  
  
  ***************************
  Time-Step Critical Elements
  ***************************
  Link SIPHON_200 (94.52%)
  Link 10417022 (2.68%)
  Link 19000152 (1.39%)
  
  
  ********************************
  Highest Flow Instability Indexes
  ********************************
  Link CENTRAL_HRT_UNDERFLOW (146)
  Link CENTRAL_HRT_INLET (146)
  Link 19001834 (132)
  Link 14000163_1 (102)
  Link SIPHON_200A (40)
  
  
  *********************************
  Most Frequent Nonconverging Nodes
  *********************************
  Node 10001366 (0.69%)
  Node 10001369 (0.69%)
  Node 1045729 (0.69%)
  Node 1045730 (0.69%)
  Node 1045742 (0.69%)
  
  
  *************************
  Routing Time Step Summary
  *************************
  Minimum Time Step           :     0.43 sec
  Average Time Step           :     6.66 sec
  Maximum Time Step           :     8.94 sec
  % of Time in Steady State   :     0.00
  Average Iterations per Step :     3.75
  % of Steps Not Converging   :     0.69
  Time Step Frequencies       :
     60.000 -  6.645 sec      :    36.24 %
      6.645 -  0.736 sec      :    63.75 %
      0.736 -  0.082 sec      :     0.00 %
      0.082 -  0.009 sec      :     0.00 %
      0.009 -  0.001 sec      :     0.00 %
  
  
  ***************************
  Subcatchment Runoff Summary
  ***************************
  
  ------------------------------------------------------------------------------------------------------------------------------
                            Total      Total      Total      Total     Imperv       Perv      Total       Total     Peak  Runoff
                           Precip      Runon       Evap      Infil     Runoff     Runoff     Runoff      Runoff   Runoff   Coeff
  Subcatchment                 mm         mm         mm         mm         mm         mm         mm    10^6 ltr      LPS
  ------------------------------------------------------------------------------------------------------------------------------
  CN98                      25.00       0.00       0.00       4.33       0.00      20.67      20.67        0.21    16.13   0.827
  CN97                      25.00       0.00       0.00       6.03       0.00      18.96      18.96        0.19    15.63   0.758
  CN96                      25.00       0.00       0.00      17.99       0.00       7.00       7.00        0.07     7.73   0.280
  23001924                  25.00       0.00       0.00      17.99       0.00       7.00       7.00        0.07     7.73   0.280
  23001925                  25.00       0.00       0.00      17.99       0.00       7.00       7.00        0.07     7.73   0.280
  23001926                  25.00       0.00       0.00      22.16       0.00       1.59       1.59        0.02     7.09   0.064
  23001927                  25.00       0.00       0.00      22.16       0.00       1.59       1.59        0.02     7.09   0.064
  23001928                  25.00       0.00       0.00      22.16       0.00       1.59       1.59        0.02     7.09   0.064
  23001929                  25.00       0.00       0.00      22.16       0.00       1.59       1.59        0.02     7.09   0.064
  23001930                  25.00       0.00       0.00      22.16       0.00       1.59       1.59        0.02     7.09   0.064
  23001931                  25.00       0.00       0.00      22.16       0.00       1.59       1.59        0.02     7.09   0.064
  23001932                  25.00       0.00       0.00      22.16       0.00       1.59       1.59        0.02     7.09   0.064
  23001933                  25.00       0.00       0.00      22.16       0.00       1.59       1.59        0.02     7.09   0.064
  23001934                  25.00       0.00       0.00      17.99       0.00       7.00       7.00        0.07     7.73   0.280
  23001935                  25.00       0.00       0.00      22.16       0.00       1.59       1.59        0.02     7.09   0.064
  23001936                  25.00       0.00       0.00      22.16       0.00       1.59       1.59        0.02     7.09   0.064
  23001937                  25.00       0.00       0.00      17.99       0.00       7.00       7.00        0.07     7.73   0.280
  23001938                  25.00       0.00       0.00      22.16       0.00       1.59       1.59        0.02     7.09   0.064
  23001939                  25.00       0.00       0.00      22.16       0.00       1.59       1.59        0.02     7.09   0.064
  23001940                  25.00       0.00       0.00      17.99       0.00       7.00       7.00        0.07     7.73   0.280
  23001941                  25.00       0.00       0.00      17.99       0.00       7.00       7.00        0.07     7.73   0.280
  23001942                  25.00       0.00       0.00      22.16       0.00       1.59       1.59        0.02     7.09   0.064
  23001943                  25.00       0.00       0.00      22.16       0.00       1.59       1.59        0.02     7.09   0.064
  23001944                  25.00       0.00       0.00      22.16       0.00       1.59       1.59        0.02     7.09   0.064
  23001945                  25.00       0.00       0.00      22.16       0.00       1.59       1.59        0.02     7.09   0.064
  23001946                  25.00       0.00       0.00      22.16       0.00       1.59       1.59        0.02     7.09   0.064
  23001947                  25.00       0.00       0.00      22.16       0.00       1.59       1.59        0.02     7.09   0.064
  23001948                  25.00       0.00       0.00      22.16       0.00       1.59       1.59        0.02     7.09   0.064
  23001949                  25.00       0.00       0.00      22.16       0.00       1.59       1.59        0.02     7.09   0.064
  23001950                  25.00       0.00       0.00      22.16       0.00       1.59       1.59        0.02     7.09   0.064
  23001951                  25.00       0.00       0.00      22.16       0.00       1.59       1.59        0.02     7.09   0.064
  23001952                  25.00       0.00       0.00      22.16       0.00       1.59       1.59        0.02     7.09   0.064
  23001953                  25.00       0.00       0.00      22.16       0.00       1.59       1.59        0.02     7.09   0.064
  23001954                  25.00       0.00       0.00      22.16       0.00       1.59       1.59        0.02     7.09   0.064
  23001955                  25.00       0.00       0.00      22.16       0.00       1.59       1.59        0.02     7.09   0.064
  23001956                  25.00       0.00       0.00      22.16       0.00       1.59       1.59        0.02     7.09   0.064
  23001957                  25.00       0.00       0.00      22.16       0.00       1.59       1.59        0.02     7.09   0.064
  23001958                  25.00       0.00       0.00      22.16       0.00       1.59       1.59        0.02     7.09   0.064
  23001959                  25.00       0.00       0.00      17.99       0.00       7.00       7.00        0.07     7.73   0.280
  23001960                  25.00       0.00       0.00      22.16       0.00       1.59       1.59        0.02     7.09   0.064
  23001961                  25.00       0.00       0.00      17.99       0.00       7.00       7.00        0.07     7.73   0.280
  23001962                  25.00       0.00       0.00      22.16       0.00       1.59       1.59        0.02     7.09   0.064
  23001963                  25.00       0.00       0.00      22.16       0.00       1.59       1.59        0.02     7.09   0.064
  23002083                  25.00       0.00       0.00      17.99       0.00       7.00       7.00        0.07     7.73   0.280
  23002084                  25.00       0.00       0.00      17.99       0.00       7.00       7.00        0.07     7.73   0.280
  23002085                  25.00       0.00       0.00      17.99       0.00       7.00       7.00        0.07     7.73   0.280
  23002086                  25.00       0.00       0.00      22.16       0.00       1.59       1.59        0.02     7.09   0.064
  23002087                  25.00       0.00       0.00      22.16       0.00       1.59       1.59        0.02     7.09   0.064
  
  
  ******************
  Node Depth Summary
  ******************
  
  ---------------------------------------------------------------------------------
                                 Average  Maximum  Maximum  Time of Max    Reported
                                   Depth    Depth      HGL   Occurrence   Max Depth
  Node                 Type       Meters   Meters   Meters  days hr:min      Meters
  ---------------------------------------------------------------------------------
  10000005             JUNCTION     0.19     0.26   188.57     0  00:20        0.26
  10000017             JUNCTION     0.14     0.16   173.35     1  09:40        0.16
  10000018             JUNCTION     0.13     0.15   172.82     0  09:34        0.15
  10000019             JUNCTION     0.12     0.14   172.68     1  09:42        0.14
  10000020             JUNCTION     0.16     0.19   172.55     1  09:54        0.19
  10000021             JUNCTION     0.13     0.15   172.34     1  11:43        0.15
  10000022             JUNCTION     0.12     0.14   172.81     1  11:37        0.14
  10000023             JUNCTION     0.11     0.12   172.63     1  11:37        0.12
  10000024             JUNCTION     0.14     0.16   172.52     0  11:35        0.16
  10000025             JUNCTION     0.03     0.07   174.53     1  04:22        0.07
  10000026             JUNCTION     0.03     0.07   174.76     1  04:21        0.07
  10000027             JUNCTION     0.03     0.07   174.93     1  04:17        0.07
  10000028             JUNCTION     0.03     0.07   175.12     1  04:14        0.07
  10000029             JUNCTION     0.04     0.08   175.29     1  04:11        0.08
  10000131             JUNCTION     0.05     0.09   175.65     1  04:10        0.09
  10000132             JUNCTION     0.06     0.08   177.65     0  00:25        0.08
  10000133             JUNCTION     0.05     0.07   176.81     0  00:26        0.07
  10000134             JUNCTION     0.08     0.11   175.78     0  00:26        0.11
  10000135             JUNCTION     0.07     0.09   175.65     0  00:28        0.09
  10000136             JUNCTION     0.05     0.07   175.30     0  00:28        0.07
  10000140             JUNCTION     0.05     0.06   174.62     0  00:29        0.06
  10000142             JUNCTION     0.16     0.18   172.86     1  11:37        0.18
  10000143             JUNCTION     0.05     0.06   175.66     1  04:17        0.06
  10000144             JUNCTION     0.10     0.11   175.91     1  04:14        0.11
  10000145             JUNCTION     0.17     0.32   190.52     0  00:05        0.32
  10000146             JUNCTION     0.19     0.35   190.25     0  00:08        0.35
  10000147             JUNCTION     0.07     0.08   176.28     1  04:12        0.08
  10000148             JUNCTION     0.08     0.09   176.59     1  04:10        0.09
  10000149             JUNCTION     0.07     0.09   176.89     1  04:10        0.09
  10000150             JUNCTION     0.12     0.14   176.00     1  09:59        0.14
  10000151             JUNCTION     0.13     0.14   175.73     1  09:06        0.14
  10000152             JUNCTION     0.12     0.14   175.50     1  09:10        0.14
  10000153             JUNCTION     0.13     0.15   175.32     0  09:24        0.15
  10000154             JUNCTION     0.12     0.13   175.20     1  09:35        0.13
  10000155             JUNCTION     0.13     0.15   175.07     0  08:13        0.15
  10000156             JUNCTION     0.14     0.16   174.87     1  09:33        0.16
  10000157             JUNCTION     0.13     0.15   174.51     1  10:00        0.15
  10000158             JUNCTION     0.12     0.14   174.23     1  09:23        0.14
  10000159             JUNCTION     0.03     0.07   174.33     1  04:30        0.07
  10000160             JUNCTION     0.05     0.08   174.14     1  04:35        0.08
  10000161             JUNCTION     0.10     0.13   165.20     1  04:10        0.13
  10000162             JUNCTION     0.15     0.18   165.62     1  04:19        0.18
  10000163             JUNCTION     0.20     0.24   172.19     1  12:20        0.24
  10000164             JUNCTION     0.19     0.23   172.51     1  10:23        0.23
  10000191             JUNCTION     0.04     0.10   169.87     1  04:56        0.10
  10000192             JUNCTION     0.04     0.11   169.78     1  04:56        0.11
  10000193             JUNCTION     0.03     0.10   169.67     1  05:00        0.10
  10000194             JUNCTION     0.05     0.12   169.58     1  05:05        0.12
  10000195             JUNCTION     0.07     0.09   164.79     1  04:11        0.09
  10000196             JUNCTION     0.05     0.08   168.23     1  04:10        0.08
  10000197             JUNCTION     0.04     0.07   168.01     1  04:10        0.07
  10000198             JUNCTION     0.11     0.14   167.82     1  04:10        0.13
  10000199             JUNCTION     0.11     0.14   167.78     1  04:10        0.14
  10000200             JUNCTION     0.13     0.15   167.75     1  04:10        0.15
  10000201             JUNCTION     0.10     0.12   167.58     1  04:11        0.12
  10000202             JUNCTION     0.19     0.33   189.93     0  00:09        0.33
  10000203             JUNCTION     0.20     0.32   189.62     0  00:11        0.32
  10000204             JUNCTION     0.22     0.34   189.54     0  00:12        0.34
  10000259             JUNCTION     0.19     0.29   189.39     0  00:14        0.29
  10000260             JUNCTION     0.19     0.27   189.07     0  00:17        0.27
  10000261             JUNCTION     0.19     0.25   188.80     0  00:19        0.25
  10000262             JUNCTION     0.18     0.25   188.61     0  00:20        0.25
  10000263             JUNCTION     0.20     0.25   188.35     0  00:22        0.25
  10000264             JUNCTION     0.13     0.17   188.07     0  00:23        0.17
  10000265             JUNCTION     0.13     0.17   187.37     0  00:24        0.17
  10000266             JUNCTION     0.14     0.18   186.68     0  00:24        0.18
  10000267             JUNCTION     0.18     0.22   185.72     0  00:26        0.22
  10000268             JUNCTION     0.15     0.18   185.20     0  00:28        0.18
  10000269             JUNCTION     0.15     0.18   184.08     1  04:33        0.18
  10000270             JUNCTION     0.12     0.15   182.88     1  04:34        0.15
  10000271             JUNCTION     0.13     0.15   181.78     1  04:35        0.15
  10000272             JUNCTION     0.14     0.17   180.82     1  04:35        0.17
  10000273             JUNCTION     0.20     0.24   180.24     1  12:08        0.24
  10000274             JUNCTION     0.20     0.24   179.59     1  12:09        0.24
  10000275             JUNCTION     0.20     0.24   178.92     1  12:10        0.24
  10000276             JUNCTION     0.19     0.23   178.36     1  12:11        0.23
  10000277             JUNCTION     0.17     0.21   178.09     1  04:31        0.21
  10000278             JUNCTION     0.18     0.21   177.15     1  12:12        0.21
  10000279             JUNCTION     0.18     0.21   176.08     1  12:14        0.21
  10000280             JUNCTION     0.18     0.22   174.90     1  10:19        0.22
  10000281             JUNCTION     0.21     0.25   173.83     1  10:20        0.25
  10000282             JUNCTION     0.20     0.24   173.27     1  10:21        0.24
  10000283             JUNCTION     0.21     0.25   172.66     1  10:22        0.25
  10000285             JUNCTION     0.04     0.24   184.49     0  00:01        0.23
  10000286             JUNCTION     0.04     0.21   183.90     0  00:02        0.20
  10000287             JUNCTION     0.04     0.18   183.33     0  00:03        0.18
  10000288             JUNCTION     0.04     0.14   182.90     0  00:05        0.14
  10000289             JUNCTION     0.04     0.12   181.90     0  00:08        0.12
  10000290             JUNCTION     0.12     0.14   173.98     1  10:01        0.14
  10000291             JUNCTION     0.13     0.15   173.67     1  09:28        0.15
  10000292             JUNCTION     0.12     0.15   174.55     1  04:31        0.15
  10000293             JUNCTION     0.11     0.14   174.87     1  04:27        0.14
  10000294             JUNCTION     0.13     0.16   175.12     1  04:22        0.16
  10000295             JUNCTION     0.11     0.15   175.41     1  04:20        0.15
  10000296             JUNCTION     0.12     0.16   175.70     1  04:13        0.16
  10000297             JUNCTION     0.09     0.12   176.12     1  04:20        0.12
  10000298             JUNCTION     0.09     0.13   176.54     1  04:17        0.13
  10000299             JUNCTION     0.12     0.15   176.93     1  04:16        0.15
  10000300             JUNCTION     0.11     0.30   177.34     0  00:02        0.30
  10000301             JUNCTION     0.09     0.27   177.74     0  00:01        0.24
  10000302             JUNCTION     0.04     0.09   176.16     1  04:10        0.09
  10000317             JUNCTION     0.03     0.08   175.06     1  04:10        0.08
  10000318             JUNCTION     0.09     0.11   164.64     1  04:11        0.11
  10000366             JUNCTION     0.00     0.00   175.48     0  00:00        0.00
  10000367             JUNCTION     0.18     0.37   191.03     0  00:01        0.37
  10000368             JUNCTION     0.18     0.34   190.84     0  00:03        0.34
  10000369             JUNCTION     0.09     0.11   165.64     1  04:09        0.11
  10000388             JUNCTION     0.04     0.11   170.74     1  04:26        0.11
  10000389             JUNCTION     0.04     0.12   170.63     1  04:27        0.12
  10000390             JUNCTION     0.04     0.11   170.55     1  04:31        0.11
  10000391             JUNCTION     0.04     0.12   170.43     1  04:34        0.12
  10000392             JUNCTION     0.04     0.12   170.30     1  04:39        0.12
  10000393             JUNCTION     0.04     0.12   170.19     1  04:43        0.12
  10000394             JUNCTION     0.04     0.11   171.05     1  04:19        0.11
  10000395             JUNCTION     0.05     0.12   170.94     1  04:24        0.12
  10000396             JUNCTION     0.04     0.12   170.09     1  04:48        0.12
  10000397             JUNCTION     0.04     0.11   169.98     1  04:52        0.11
  10000398             JUNCTION     0.11     0.13   167.37     1  04:12        0.13
  10000399             JUNCTION     0.12     0.16   166.77     1  04:08        0.16
  10000400             JUNCTION     0.08     0.37   166.79     1  04:08        0.37
  10000400_1A          JUNCTION     0.00     0.03   165.34     1  04:12        0.02
  10000400_1B          JUNCTION     0.08     0.18   158.63     1  04:39        0.18
  10000400_1C          JUNCTION     0.00     0.00   158.91     0  00:00        0.00
  10000400_1D          JUNCTION     0.00     0.00   164.39     0  00:00        0.00
  10000400_1E          JUNCTION     0.00     0.00   165.48     0  00:00        0.00
  10000400_2A          JUNCTION     0.00     0.00   165.21     0  00:00        0.00
  10000400_2B          JUNCTION     0.00     0.00   158.35     0  00:00        0.00
  10000400_2C          JUNCTION     0.00     0.00   158.81     0  00:00        0.00
  10000400_2D          JUNCTION     0.00     0.00   164.29     0  00:00        0.00
  10000400_2E          JUNCTION     0.00     0.00   165.63     0  00:00        0.00
  10000400_A           JUNCTION     0.70     1.23   166.64     1  04:08        1.23
  10000400_B           JUNCTION     7.50     8.10   166.65     1  04:09        8.09
  10000400_C           JUNCTION     6.86     7.24   166.25     1  04:08        7.24
  10000400_D           JUNCTION     1.35     1.57   166.06     1  04:08        1.57
  10000400_E           JUNCTION     0.33     0.44   165.87     1  04:10        0.44
  10000409             JUNCTION     0.13     0.15   174.40     1  12:00        0.15
  10000410             JUNCTION     0.11     0.13   174.54     0  11:24        0.13
  10000411             JUNCTION     0.11     0.13   174.70     0  11:20        0.13
  10000412             JUNCTION     0.12     0.14   174.85     0  11:22        0.14
  10000413             JUNCTION     0.12     0.14   174.93     0  11:18        0.14
  10000414             JUNCTION     0.11     0.13   175.00     1  11:17        0.13
  10000415             JUNCTION     0.12     0.14   175.17     1  11:11        0.14
  10000416             JUNCTION     0.09     0.11   175.39     1  11:34        0.11
  10000417             JUNCTION     0.08     0.09   175.47     0  11:19        0.09
  10000475             JUNCTION     0.24     0.28   180.28     1  04:34        0.28
  10000476             JUNCTION     0.00     0.00   183.43     0  00:00        0.00
  10000477             JUNCTION     0.02     0.06   183.28     1  04:10        0.06
  10000478             JUNCTION     0.02     0.07   183.06     1  04:10        0.07
  10000484             JUNCTION     0.02     0.05   182.86     1  04:11        0.05
  10000485             JUNCTION     0.09     0.11   182.53     1  09:02        0.11
  10000486             JUNCTION     0.09     0.12   182.24     1  09:29        0.12
  10000487             JUNCTION     0.10     0.12   182.06     1  09:06        0.12
  10000488             JUNCTION     0.10     0.12   181.89     1  09:32        0.12
  10000489             JUNCTION     0.10     0.12   181.59     1  09:33        0.12
  10000490             JUNCTION     0.09     0.11   181.35     1  09:34        0.11
  10000491             JUNCTION     0.09     0.12   181.17     1  04:10        0.12
  10000492             JUNCTION     0.09     0.13   180.85     1  04:10        0.13
  10000493             JUNCTION     0.09     0.13   180.55     1  04:11        0.13
  10000494             JUNCTION     0.14     0.17   178.88     1  09:39        0.17
  10000495             JUNCTION     0.14     0.17   178.60     1  09:39        0.17
  10000503             JUNCTION     0.20     0.37   190.89     0  00:03        0.37
  10000534             JUNCTION     0.16     0.19   178.47     1  04:10        0.19
  10000535             JUNCTION     0.13     0.19   196.27     0  00:04        0.19
  10000536             JUNCTION     0.13     0.18   195.61     0  00:04        0.17
  10000537             JUNCTION     0.13     0.18   194.99     0  00:04        0.18
  10000538             JUNCTION     0.12     0.15   194.82     1  04:13        0.15
  10000545             JUNCTION     0.11     0.14   194.19     1  04:13        0.14
  10000546             JUNCTION     0.10     0.12   192.77     1  04:14        0.12
  10000547             JUNCTION     0.09     0.12   191.17     1  04:15        0.12
  10000548             JUNCTION     0.11     0.14   189.22     1  09:50        0.14
  10000549             JUNCTION     0.11     0.13   188.04     1  09:51        0.13
  10000550             JUNCTION     0.12     0.15   186.86     1  09:52        0.15
  10000551             JUNCTION     0.10     0.12   185.86     1  09:53        0.12
  10000552             JUNCTION     0.12     0.15   185.29     1  09:54        0.15
  10000553             JUNCTION     0.12     0.14   184.70     1  09:55        0.14
  10000554             JUNCTION     0.12     0.15   181.71     1  09:55        0.15
  10000555             JUNCTION     0.06     0.08   181.44     1  09:55        0.08
  10000556             JUNCTION     0.16     0.19   172.89     1  11:36        0.19
  10000557             JUNCTION     0.12     0.16   173.19     1  04:46        0.16
  10000558             JUNCTION     0.12     0.16   173.47     1  04:39        0.16
  10000559             JUNCTION     0.16     0.19   173.61     1  04:39        0.19
  10000560             JUNCTION     0.13     0.17   174.34     1  04:37        0.17
  10000561             JUNCTION     0.13     0.15   172.60     1  09:47        0.15
  10000562             JUNCTION     0.04     0.10   181.19     0  00:11        0.10
  10000563             JUNCTION     0.08     0.13   180.55     0  00:13        0.13
  10000564             JUNCTION     0.05     0.09   180.47     0  00:13        0.09
  10000574             JUNCTION     0.06     0.09   180.00     0  00:13        0.09
  10000575             JUNCTION     0.06     0.10   179.87     0  00:15        0.10
  10000576             JUNCTION     0.06     0.09   179.03     0  00:17        0.09
  10000577             JUNCTION     0.06     0.09   178.27     0  00:20        0.09
  10000578             JUNCTION     0.03     0.07   174.99     1  04:10        0.07
  10000579             JUNCTION     0.03     0.10   174.96     1  04:10        0.10
  10000580             JUNCTION     0.03     0.10   174.57     1  04:11        0.10
  10000581             JUNCTION     0.03     0.10   174.19     1  04:12        0.10
  10000582             JUNCTION     0.03     0.10   173.83     1  04:14        0.10
  10000583             JUNCTION     0.03     0.10   173.44     1  04:15        0.10
  10000602             JUNCTION     0.03     0.10   173.14     1  04:17        0.10
  10000603             JUNCTION     0.04     0.10   172.86     1  04:20        0.10
  10000604             JUNCTION     0.03     0.09   171.68     1  04:10        0.09
  10000605             JUNCTION     0.04     0.12   171.41     1  04:11        0.12
  10000606             JUNCTION     0.04     0.12   171.30     1  04:13        0.12
  10000607             JUNCTION     0.04     0.11   171.17     1  04:15        0.11
  10000608             JUNCTION     0.09     0.11   182.40     1  09:28        0.11
  10000644             JUNCTION     0.09     0.11   182.66     1  09:01        0.11
  10000646             JUNCTION     0.16     0.20   172.37     0  10:03        0.20
  10000647             JUNCTION     0.00     0.00   169.91     0  00:00        0.00
  10000648             JUNCTION     0.18     0.22   171.82     1  10:06        0.22
  10000649             JUNCTION     0.20     0.23   171.83     1  10:09        0.23
  10000650             JUNCTION     0.00     0.00   170.93     0  00:00        0.00
  10001367             JUNCTION     0.15     0.29   177.18     0  00:00        0.17
  10001368             JUNCTION     0.14     0.28   171.76     0  00:00        0.16
  10001371             JUNCTION     0.16     0.20   172.50     0  10:03        0.20
  10001372             JUNCTION     0.18     0.22   172.77     0  10:03        0.22
  10001373             JUNCTION     0.17     0.22   172.95     0  10:02        0.22
  10001374             JUNCTION     0.18     0.22   173.89     0  10:01        0.22
  10001375             JUNCTION     0.19     0.23   173.99     1  10:00        0.23
  10001376             JUNCTION     0.17     0.23   174.08     1  14:41        0.23
  10001479             JUNCTION     0.07     0.09   165.49     1  04:10        0.09
  10001508             JUNCTION     0.15     0.19   173.44     0  09:21        0.19
  10001509             JUNCTION     0.10     0.12   171.41     0  09:21        0.12
  10001510             JUNCTION     0.07     0.09   173.05     0  09:21        0.09
  10001512             JUNCTION     0.07     0.09   170.71     0  09:22        0.09
  10001513             JUNCTION     0.12     0.15   170.06     0  09:22        0.15
  10001514             JUNCTION     0.25     0.29   169.98     0  09:25        0.29
  10001515             JUNCTION     0.12     0.15   169.32     0  09:26        0.15
  10001906             JUNCTION     0.05     0.06   169.46     1  09:53        0.06
  10001907             JUNCTION     0.20     0.24   169.14     1  09:59        0.24
  10001908             JUNCTION     0.00     0.00   163.00     0  23:08        0.00
  10001909             JUNCTION     0.00     0.00   163.30     0  23:06        0.00
  10001910             JUNCTION     0.00     0.00   163.50     0  23:04        0.00
  10001911             JUNCTION     0.00     0.00   168.15     0  00:00        0.00
  10001912             JUNCTION     0.00     0.00   168.32     0  00:00        0.00
  10001913             JUNCTION     0.02     0.03   168.91     1  10:00        0.03
  10001914             JUNCTION     0.33     0.49   164.15     1  22:25        0.49
  10410812             JUNCTION     0.04     0.12   181.92     1  04:11        0.12
  10410813             JUNCTION     0.03     0.10   181.88     1  04:11        0.10
  10410819             JUNCTION     0.03     0.04   171.38     1  04:10        0.04
  10410821             JUNCTION     1.80     1.83   157.39     1  09:44        1.83
  10410852             JUNCTION     0.02     0.13   173.10     1  04:10        0.13
  10410853             JUNCTION     0.03     0.13   172.62     1  04:10        0.13
  1045734              JUNCTION     0.05     0.14   181.96     1  04:10        0.14
  1045736              JUNCTION     0.05     0.06   186.38     1  04:10        0.06
  1046328              JUNCTION     0.02     0.04   154.74     1  04:10        0.04
  1046859              JUNCTION     0.05     0.08   178.06     1  04:10        0.08
  1048818              JUNCTION     0.02     0.03   173.79     1  04:10        0.03
  1048906              JUNCTION     0.00     0.00   156.94     0  23:08        0.00
  1048907              JUNCTION     0.03     0.04   159.51     0  10:00        0.04
  1049082              JUNCTION     0.04     0.04   186.62     1  04:10        0.04
  1049157              JUNCTION     0.02     0.03   153.68     1  04:10        0.03
  1049159              JUNCTION     0.03     0.05   151.55     1  04:10        0.05
  1049163              JUNCTION     0.02     0.04   185.47     1  04:10        0.04
  1049164              JUNCTION     0.04     0.13   182.04     1  04:10        0.13
  1049165              JUNCTION     0.01     0.07   182.16     1  04:10        0.07
  14000170             JUNCTION     0.00     0.01   163.55     0  23:04        0.01
  DORCHESTER_CSO       JUNCTION     0.00     0.00   181.78     0  00:00        0.00
  DRUMMOND_CSO         JUNCTION     0.00     0.00   186.38     0  00:00        0.00
  HIGH_LIFT_CSO        JUNCTION     0.00     0.00   173.29     0  00:00        0.00
  LOW_LIFT_PS_WEST     JUNCTION     0.03     0.08   164.87     1  05:05        0.08
  NIAGARA_WWTP_MH1     JUNCTION     1.07     1.20   172.49     1  04:10        1.20
  10001366             OUTFALL      0.00     0.00   168.22     0  00:00        0.00
  10001369             OUTFALL      0.14     0.28   168.48     0  00:00        0.16
  1045729              OUTFALL      0.00     0.00   169.76     0  00:00        0.00
  1045730              OUTFALL      0.00     0.00   153.60     0  00:00        0.00
  1045742              OUTFALL      0.00     0.00   177.77     0  00:00        0.00
  1045743              OUTFALL      0.00     0.00   181.35     0  00:00        0.00
  1048905              OUTFALL      0.00     0.00   155.94     0  23:08        0.00
  HIGH_LIFT_SPS_OVERFLOW_OUTFALL OUTFALL      0.00     0.00   171.00     0  00:00        0.00
  PELLS_CREEK_CSO      OUTFALL      0.00     0.00   178.40     0  00:00        0.00
  10000400_1           STORAGE      0.00     0.05   166.43     1  04:11        0.04
  10000400_2           STORAGE      0.00     0.00   166.38     0  00:00        0.00
  10000645             STORAGE      0.08     0.17   166.75     1  04:11        0.17
  14000026_1           STORAGE      0.00     0.50   169.51     0  00:00        0.43
  14000030_1           STORAGE      0.00     0.50   179.23     0  00:00        0.00
  14000073_1           STORAGE      0.01     0.50   169.97     0  00:00        0.02
  14000101_1           STORAGE      0.00     0.50   176.50     0  00:00        0.37
  14000109_1           STORAGE      0.00     0.50   151.38     0  00:00        0.30
  14000131             STORAGE      0.00     0.50   184.50     0  00:00        0.16
  14000137_1           STORAGE      0.00     0.50   161.85     0  00:00        0.20
  14000162             STORAGE      0.00     0.50   166.77     0  00:00        0.00
  14000163             STORAGE      0.02     0.04   160.76     1  14:41        0.03
  14000169             STORAGE      0.00     0.00   154.64     0  00:07        0.00
  
  
  *******************
  Node Inflow Summary
  *******************
  
  -------------------------------------------------------------------------------------------------
                                  Maximum  Maximum                  Lateral       Total        Flow
                                  Lateral    Total  Time of Max      Inflow      Inflow     Balance
                                   Inflow   Inflow   Occurrence      Volume      Volume       Error
  Node                 Type           LPS      LPS  days hr:min    10^6 ltr    10^6 ltr     Percent
  -------------------------------------------------------------------------------------------------
  10000005             JUNCTION      0.00   159.09     0  00:20           0        17.1       0.026
  10000017             JUNCTION      0.00    42.31     1  09:34           0        5.75       0.033
  10000018             JUNCTION      0.00    42.30     1  09:40           0        5.75       0.036
  10000019             JUNCTION      7.85    42.66     1  09:38       0.114        5.86       0.062
  10000020             JUNCTION      0.00    42.66     1  09:47           0        5.85       0.183
  10000021             JUNCTION      0.00   108.30     1  11:42           0        15.1       0.034
  10000022             JUNCTION      0.00    67.63     1  11:37           0        9.26       0.020
  10000023             JUNCTION      0.00    67.63     1  11:37           0        9.26       0.007
  10000024             JUNCTION      0.00    67.63     1  11:37           0        9.26       0.033
  10000025             JUNCTION      0.00     7.23     1  04:21           0       0.294       0.262
  10000026             JUNCTION      0.00     7.42     1  04:18           0       0.295       0.222
  10000027             JUNCTION      0.00     7.66     1  04:15           0       0.296       0.209
  10000028             JUNCTION      0.00     7.80     1  04:12           0       0.296       0.234
  10000029             JUNCTION      0.00     7.82     1  04:10           0       0.297       0.097
  10000131             JUNCTION      8.13     8.13     1  04:10       0.298       0.298       0.398
  10000132             JUNCTION      0.00    21.16     0  00:21           0        1.78       0.104
  10000133             JUNCTION      0.00    18.19     0  00:25           0        1.78       0.031
  10000134             JUNCTION      0.00    17.94     0  00:26           0        1.78       0.028
  10000135             JUNCTION      0.00    17.80     0  00:26           0        1.78       0.038
  10000136             JUNCTION      0.00    17.45     0  00:28           0        1.78       0.009
  10000140             JUNCTION      0.00    17.49     0  00:28           0        1.78       0.042
  10000142             JUNCTION      0.00    67.63     1  11:36           0        9.26       0.017
  10000143             JUNCTION      0.00    10.10     1  04:15           0        1.34       0.088
  10000144             JUNCTION      0.00    10.24     1  04:12           0        1.34       0.136
  10000145             JUNCTION      0.00   302.37     0  00:04           0          16       0.056
  10000146             JUNCTION      0.00   300.01     0  00:06           0          16       0.058
  10000147             JUNCTION      0.00    10.36     1  04:11           0        1.34       0.081
  10000148             JUNCTION      0.00    10.51     1  04:10           0        1.34       0.099
  10000149             JUNCTION     10.59    10.59     1  04:10        1.34        1.34       0.034
  10000150             JUNCTION     32.54    32.54     0  09:00        4.44        4.44       0.060
  10000151             JUNCTION      0.00    32.54     0  09:59           0        4.44       0.088
  10000152             JUNCTION      0.00    32.54     1  09:20           0        4.44       0.077
  10000153             JUNCTION      0.00    32.54     1  09:11           0        4.43      -0.028
  10000154             JUNCTION      0.00    32.54     0  09:24           0        4.43       0.043
  10000155             JUNCTION      0.00    32.54     1  09:36           0        4.43       0.092
  10000156             JUNCTION      0.00    32.58     1  09:14           0        4.43       0.104
  10000157             JUNCTION      0.00    32.54     1  09:33           0        4.42       0.074
  10000158             JUNCTION      0.00    32.54     1  10:00           0        4.42       0.087
  10000159             JUNCTION      0.00     7.38     1  04:25           0       0.294       0.258
  10000160             JUNCTION      0.00     7.14     1  04:30           0       0.293       0.539
  10000161             JUNCTION      0.00    35.73     1  04:10           0        3.78       0.053
  10000162             JUNCTION      0.00    27.99     1  04:09           0        3.43       0.095
  10000163             JUNCTION      0.00   198.04     1  10:23           0        26.6       0.020
  10000164             JUNCTION      0.00   198.04     1  10:22           0        26.7       0.012
  10000191             JUNCTION      0.00    17.21     1  04:54           0       0.382       0.148
  10000192             JUNCTION      0.00    17.04     1  04:56           0       0.382       0.133
  10000193             JUNCTION      0.00    17.15     1  04:58           0       0.381       0.134
  10000194             JUNCTION      0.00    17.00     1  05:00           0       0.381       0.384
  10000195             JUNCTION      0.00    37.09     1  04:10           0        4.16       0.040
  10000196             JUNCTION      9.00     9.00     1  04:10       0.538       0.538       0.024
  10000197             JUNCTION      0.00     8.96     1  04:10           0       0.538       0.100
  10000198             JUNCTION     20.65    25.82     1  04:10        2.72        3.26       0.036
  10000199             JUNCTION      0.00    25.71     1  04:10           0        3.26       0.016
  10000200             JUNCTION      0.00    25.69     1  04:10           0        3.26       0.023
  10000201             JUNCTION      0.00    25.66     1  04:10           0        3.26       0.036
  10000202             JUNCTION      0.00   283.99     0  00:08           0          16       0.075
  10000203             JUNCTION      0.00   252.27     0  00:10           0          16       0.064
  10000204             JUNCTION      7.82   226.53     0  00:11       0.114        16.1       0.044
  10000259             JUNCTION      0.00   211.19     0  00:13           0        16.1       0.060
  10000260             JUNCTION      0.00   186.75     0  00:15           0        16.1       0.078
  10000261             JUNCTION      0.00   166.98     0  00:18           0        16.1       0.057
  10000262             JUNCTION      0.00   158.38     0  00:19           0        16.1       0.031
  10000263             JUNCTION      0.00   160.33     0  00:21           0        17.1       0.050
  10000264             JUNCTION      0.00   148.96     0  00:23           0        17.1       0.022
  10000265             JUNCTION      0.00   147.72     0  00:23           0        17.1       0.016
  10000266             JUNCTION      0.00   146.98     0  00:24           0        17.1       0.024
  10000267             JUNCTION      0.00   145.60     0  00:24           0        17.1       0.046
  10000268             JUNCTION      0.00   140.58     0  00:26           0        17.1       0.043
  10000269             JUNCTION      0.00   137.82     0  00:28           0        17.1       0.050
  10000270             JUNCTION      0.00   131.25     1  04:34           0        17.1       0.027
  10000271             JUNCTION      0.00   131.19     1  04:34           0        17.1       0.017
  10000272             JUNCTION      0.00   131.17     1  04:35           0        17.1       0.024
  10000273             JUNCTION      0.00   185.19     1  12:07           0        24.9       0.030
  10000274             JUNCTION      0.00   185.18     1  12:08           0        24.9       0.050
  10000275             JUNCTION      0.00   185.16     1  12:09           0        24.9       0.048
  10000276             JUNCTION      0.00   185.14     1  12:10           0        24.9       0.026
  10000277             JUNCTION      7.92   185.72     1  04:31       0.139          25       0.020
  10000278             JUNCTION      0.00   185.68     1  04:31           0          25       0.034
  10000279             JUNCTION      0.00   185.63     1  12:13           0          25       0.043
  10000280             JUNCTION     14.26   198.08     1  10:17        1.73        26.7       0.040
  10000281             JUNCTION      0.00   198.07     1  10:19           0        26.7       0.045
  10000282             JUNCTION      0.00   198.06     1  10:20           0        26.7       0.041
  10000283             JUNCTION      0.00   198.05     1  10:22           0        26.7       0.026
  10000285             JUNCTION      0.00   138.39     0  00:00           0        0.68      -0.022
  10000286             JUNCTION      0.00   136.90     0  00:02           0        0.68       0.115
  10000287             JUNCTION      0.00   101.50     0  00:02           0        0.68       0.104
  10000288             JUNCTION      0.00    70.60     0  00:04           0       0.679       0.051
  10000289             JUNCTION      0.00    46.48     0  00:06           0       0.679       0.171
  10000290             JUNCTION      0.00    32.54     0  09:35           0        4.42       0.062
  10000291             JUNCTION      0.00    32.54     0  10:01           0        4.41       0.107
  10000292             JUNCTION      0.00    48.11     1  04:28           0         5.3       0.142
  10000293             JUNCTION      0.00    48.52     1  04:24           0        5.31       0.130
  10000294             JUNCTION      0.00    48.49     1  04:20           0        5.32       0.151
  10000295             JUNCTION      0.00    48.93     1  04:16           0        5.32       0.135
  10000296             JUNCTION     10.33    49.31     1  04:10       0.893        5.33       0.125
  10000297             JUNCTION      0.00    43.12     1  04:17           0        4.44       0.118
  10000298             JUNCTION      0.00    43.10     1  04:16           0        4.44       0.035
  10000299             JUNCTION      0.00   150.46     0  00:02           0        4.46       0.265
  10000300             JUNCTION      0.00   250.20     0  00:01           0        4.46       0.026
  10000301             JUNCTION      0.00   292.72     0  00:00           0        4.18       0.064
  10000302             JUNCTION      7.95     7.95     1  04:10       0.226       0.226       0.055
  10000317             JUNCTION      0.00     7.92     1  04:10           0       0.226       0.042
  10000318             JUNCTION      0.00    37.02     1  04:11           0        4.16       0.022
  10000366             JUNCTION      0.00     0.00     0  00:00           0           0       0.000 ltr
  10000367             JUNCTION      0.00   313.97     0  00:00           0        15.2       0.020
  10000368             JUNCTION      0.00   300.10     0  00:03           0        16.1       0.024
  10000369             JUNCTION      0.00    28.33     1  04:09           0        3.43       0.008
  10000388             JUNCTION      0.00    18.28     1  04:24           0       0.389       0.080
  10000389             JUNCTION      0.00    18.22     1  04:26           0       0.389       0.175
  10000390             JUNCTION      0.00    18.19     1  04:29           0       0.388       0.160
  10000391             JUNCTION      0.00    17.94     1  04:32           0       0.388       0.256
  10000392             JUNCTION      0.00    18.06     1  04:36           0       0.387       0.315
  10000393             JUNCTION      0.00    17.91     1  04:41           0       0.385       0.276
  10000394             JUNCTION      0.00    19.48     1  04:16           0       0.392       0.182
  10000395             JUNCTION      0.00    19.08     1  04:19           0       0.391       0.454
  10000396             JUNCTION      0.00    17.72     1  04:44           0       0.384       0.291
  10000397             JUNCTION      0.00    17.33     1  04:50           0       0.383       0.211
  10000398             JUNCTION      0.00    25.59     1  04:11           0        3.25       0.108
  10000399             JUNCTION      7.77    32.73     1  04:10       0.203        3.45       0.008
  10000400             JUNCTION      0.00    65.04     1  04:08           0        3.45       0.007
  10000400_1A          JUNCTION      0.00    10.21     1  04:11           0     0.00234       1.176
  10000400_1B          JUNCTION      0.00     7.86     1  04:12           0     0.00231    2314.853 ltr
  10000400_1C          JUNCTION      0.00     0.00     0  00:00           0           0       0.000 ltr
  10000400_1D          JUNCTION      0.00     0.00     0  00:00           0           0       0.000 ltr
  10000400_1E          JUNCTION      0.00     0.00     0  00:00           0           0       0.000 ltr
  10000400_2A          JUNCTION      0.00     0.00     0  00:00           0           0       0.000 ltr
  10000400_2B          JUNCTION      0.00     0.00     0  00:00           0           0       0.000 ltr
  10000400_2C          JUNCTION      0.00     0.00     0  00:00           0           0       0.000 ltr
  10000400_2D          JUNCTION      0.00     0.00     0  00:00           0           0       0.000 ltr
  10000400_2E          JUNCTION      0.00     0.00     0  00:00           0           0       0.000 ltr
  10000400_A           JUNCTION      0.00    29.39     1  04:08           0        3.45       0.219
  10000400_B           JUNCTION      0.00    28.57     1  04:08           0        3.44       0.347
  10000400_C           JUNCTION      0.00    28.20     1  04:09           0        3.43       0.045
  10000400_D           JUNCTION      0.00    28.27     1  04:09           0        3.43       0.026
  10000400_E           JUNCTION      0.00    28.30     1  04:09           0        3.43       0.025
  10000409             JUNCTION      0.00    24.24     0  11:24           0        3.11      -0.007
  10000410             JUNCTION      0.00    24.24     0  11:22           0        3.11       0.094
  10000411             JUNCTION      0.00    24.23     0  11:21           0        3.11       0.093
  10000412             JUNCTION      0.00    24.24     1  11:19           0        3.12       0.070
  10000413             JUNCTION      8.04    24.24     1  11:17       0.486        3.12       0.069
  10000414             JUNCTION      0.00    20.39     1  11:13           0        2.63       0.016
  10000415             JUNCTION      0.00    20.39     0  11:34           0        2.64       0.140
  10000416             JUNCTION      0.00    20.39     0  11:08           0        2.64       0.075
  10000417             JUNCTION     20.39    20.39     0  11:00        2.64        2.64       0.020
  10000475             JUNCTION      0.00   131.13     1  04:35           0        17.1       0.030
  10000476             JUNCTION      0.00     0.00     0  00:00           0           0       0.000 ltr
  10000477             JUNCTION      7.97     7.97     1  04:10       0.187       0.187       0.045
  10000478             JUNCTION      0.00     7.93     1  04:10           0       0.187       0.072
  10000484             JUNCTION      0.00     7.90     1  04:10           0       0.187       0.033
  10000485             JUNCTION      0.00    28.06     1  09:01           0        3.44       0.018
  10000486             JUNCTION      0.00    27.82     1  09:28           0        3.44       0.024
  10000487             JUNCTION      0.00    27.82     1  09:29           0        3.44       0.026
  10000488             JUNCTION      0.00    27.82     1  09:30           0        3.44       0.039
  10000489             JUNCTION      7.44    29.26     1  09:32       0.189        3.63       0.042
  10000490             JUNCTION      0.00    29.26     1  09:33           0        3.62       0.024
  10000491             JUNCTION      7.86    36.14     1  04:10       0.134        3.76       0.022
  10000492             JUNCTION      0.00    36.06     1  04:10           0        3.76       0.032
  10000493             JUNCTION      0.00    35.98     1  04:10           0        3.76       0.050
  10000494             JUNCTION     21.14    50.96     1  09:36        2.57        6.32       0.053
  10000495             JUNCTION      8.86    58.19     1  09:39        0.89        7.21       0.017
  10000503             JUNCTION      0.00   405.98     0  00:00           0        16.1       0.033
  10000534             JUNCTION      8.32    64.65     1  04:10       0.625        7.83       0.010
  10000535             JUNCTION      0.00   113.67     0  00:00           0        7.86       0.045
  10000536             JUNCTION      0.00    96.92     0  00:04           0        7.85       0.039
  10000537             JUNCTION      0.00    79.44     0  00:04           0        7.85       0.007
  10000538             JUNCTION      0.00    78.68     0  00:04           0        7.85       0.036
  10000545             JUNCTION      0.00    63.68     1  04:13           0        7.85       0.032
  10000546             JUNCTION      0.00    63.51     1  04:14           0        7.85       0.027
  10000547             JUNCTION      0.00    63.39     1  04:14           0        7.84       0.026
  10000548             JUNCTION      0.00    63.29     1  04:15           0        7.84       0.028
  10000549             JUNCTION      0.00    63.23     1  09:50           0        7.84       0.027
  10000550             JUNCTION      0.00    63.23     1  09:51           0        7.84       0.031
  10000551             JUNCTION      0.00    63.23     1  09:52           0        7.83       0.009
  10000552             JUNCTION      0.00    63.23     1  09:53           0        7.83       0.028
  10000553             JUNCTION      0.00    63.23     1  09:54           0        7.83       0.025
  10000554             JUNCTION      0.00    63.23     1  09:55           0        7.83       0.004
  10000555             JUNCTION      0.00    63.23     1  09:55           0        7.83       0.004
  10000556             JUNCTION      0.00    67.64     1  11:34           0        9.27       0.099
  10000557             JUNCTION      7.54    55.08     1  04:41       0.238        6.18       0.196
  10000558             JUNCTION      0.00    54.40     1  04:39           0        5.94       0.091
  10000559             JUNCTION      8.42    47.91     1  04:38       0.377        5.66       0.103
  10000560             JUNCTION      0.00    47.65     1  04:31           0        5.29       0.272
  10000561             JUNCTION      0.00    42.66     1  09:42           0        5.85       0.058
  10000562             JUNCTION      0.00    31.63     0  00:09           0       0.677       0.141
  10000563             JUNCTION      0.00    57.24     0  00:00           0        1.79       0.071
  10000564             JUNCTION      0.00    25.91     0  00:13           0        1.78       0.016
  10000574             JUNCTION      0.00    25.75     0  00:13           0        1.78       0.020
  10000575             JUNCTION      0.00    25.95     0  00:14           0        1.78       0.033
  10000576             JUNCTION      0.00    25.58     0  00:15           0        1.78       0.075
  10000577             JUNCTION      0.00    22.91     0  00:18           0        1.78       0.072
  10000578             JUNCTION      0.00     7.91     1  04:10           0       0.226       0.057
  10000579             JUNCTION      7.30    15.17     1  04:10      0.0675       0.293       0.194
  10000580             JUNCTION      0.00    14.96     1  04:10           0       0.293      -0.061
  10000581             JUNCTION      0.00    14.89     1  04:11           0       0.293      -0.083
  10000582             JUNCTION      0.00    14.82     1  04:13           0       0.293       0.018
  10000583             JUNCTION      0.00    14.72     1  04:15           0       0.293      -0.124
  10000602             JUNCTION      0.00    14.69     1  04:16           0       0.294       0.133
  10000603             JUNCTION      0.00    14.63     1  04:17           0       0.293       0.066
  10000604             JUNCTION      7.44    20.20     1  04:10       0.101       0.394       0.039
  10000605             JUNCTION      0.00    20.05     1  04:10           0       0.394       0.124
  10000606             JUNCTION      0.00    19.71     1  04:12           0       0.393       0.185
  10000607             JUNCTION      0.00    19.45     1  04:14           0       0.392       0.173
  10000608             JUNCTION      0.00    27.82     1  09:27           0        3.44       0.019
  10000644             JUNCTION     26.82    27.82     1  09:26        3.26        3.44       0.007
  10000646             JUNCTION      0.00   107.69     0  10:03           0        12.9       0.026
  10000647             JUNCTION      0.00     0.00     0  00:00           0           0       0.000 ltr
  10000648             JUNCTION      0.00   305.43     1  10:05           0        40.6       0.038
  10000649             JUNCTION      0.00   198.04     1  10:23           0        26.6       0.015
  10000650             JUNCTION      0.00     0.00     0  00:00           0           0       0.000 ltr
  10001367             JUNCTION      0.00  1579.00     0  00:00           0        40.7       0.017
  10001368             JUNCTION      0.00  1195.94     0  00:00           0        40.7       0.011
  10001371             JUNCTION      0.00   107.69     0  10:03           0        12.9       0.009
  10001372             JUNCTION      0.00   107.71     0  10:02           0        12.9       0.037
  10001373             JUNCTION      0.00   107.73     0  10:01           0        12.9       0.048
  10001374             JUNCTION      0.00   107.86     0  10:01           0        12.9       0.040
  10001375             JUNCTION      0.00   123.15     1  14:41           0        12.9       0.034
  10001376             JUNCTION      0.00   282.90     1  14:40           0        12.9       0.016
  10001479             JUNCTION      8.33    35.80     1  04:09       0.357        3.78       0.027
  10001508             JUNCTION     83.88    98.34     0  09:20        10.1        11.9       0.016
  10001509             JUNCTION      0.00    98.34     0  09:21           0        11.9       0.012
  10001510             JUNCTION      0.00    98.34     0  09:21           0        11.9       0.005
  10001512             JUNCTION      0.00    98.34     0  09:21           0        11.9       0.010
  10001513             JUNCTION      0.00    98.34     0  09:22           0        11.9       0.019
  10001514             JUNCTION      0.00    98.34     0  09:22           0        11.9       0.156
  10001515             JUNCTION      0.00    98.34     0  09:25           0        11.9       0.012
  10001906             JUNCTION      0.00     9.34     1  09:42           0         1.1       0.045
  10001907             JUNCTION      0.00   107.69     0  09:26           0        12.9       0.037
  10001908             JUNCTION      0.00     0.11     0  23:06           0    0.000594      -0.117
  10001909             JUNCTION      0.00     0.12     0  23:05           0    0.000594      -0.029
  10001910             JUNCTION      0.00     0.15     1  20:39           0    0.000598       0.735
  10001911             JUNCTION      0.00     0.00     0  00:00           0           0       0.000 ltr
  10001912             JUNCTION      0.00     0.00     0  00:00           0           0       0.000 ltr
  10001913             JUNCTION      0.00   109.26     1  09:59           0        12.9      -0.033
  10001914             JUNCTION      0.00   113.90     1  09:59           0        12.9       0.000
  10410812             JUNCTION      0.00    43.44     1  04:10           0       0.832       0.021
  10410813             JUNCTION      0.00    43.40     1  04:11           0       0.831       0.018
  10410819             JUNCTION      0.00    10.09     1  04:10           0        1.11       0.185
  10410821             JUNCTION      0.00     9.34     1  09:09           0         1.1       0.237
  10410852             JUNCTION     93.53    93.53     1  04:10        1.09        1.09      -0.002
  10410853             JUNCTION      0.00    93.46     1  04:10           0        1.09       0.012
  1045734              JUNCTION      0.00    43.58     1  04:10           0       0.832       0.044
  1045736              JUNCTION      0.00     9.13     1  04:10           0        1.04       0.017
  1046328              JUNCTION      8.88     8.88     1  04:10       0.662       0.662       0.007
  1046859              JUNCTION      8.06     8.06     1  04:10       0.279       0.279       1.042
  1048818              JUNCTION     10.12    10.12     1  04:10        1.11        1.11       0.013
  1048906              JUNCTION      0.00     0.11     0  23:08           0    0.000595       0.490
  1048907              JUNCTION      9.34     9.34     0  09:00         1.1         1.1       0.012
  1049082              JUNCTION      9.16     9.16     1  04:10        1.04        1.04       0.015
  1049157              JUNCTION      0.00     8.86     1  04:10           0       0.662       0.010
  1049159              JUNCTION      0.00     8.85     1  04:10           0       0.661       0.034
  1049163              JUNCTION     22.72    22.72     1  04:10       0.764       0.764       0.009
  1049164              JUNCTION      0.00    43.86     1  04:10           0       0.832       0.032
  1049165              JUNCTION     21.31    21.31     1  04:10      0.0678      0.0678      -0.047
  14000170             JUNCTION      0.00     0.00     0  00:00           0           0    -100.000
  DORCHESTER_CSO       JUNCTION      0.00     0.00     0  00:00           0           0       0.000 ltr
  DRUMMOND_CSO         JUNCTION      0.00     0.00     0  00:00           0           0       0.000 ltr
  HIGH_LIFT_CSO        JUNCTION      0.00     0.00     0  00:00           0           0       0.000 ltr
  LOW_LIFT_PS_WEST     JUNCTION      0.00    16.53     1  05:05           0       0.379       0.023
  NIAGARA_WWTP_MH1     JUNCTION      0.00    93.35     1  04:10           0        1.09       0.113
  10001366             OUTFALL       0.00     0.00     0  00:00           0           0       0.000 ltr
  10001369             OUTFALL       0.00   953.16     0  00:00           0        40.7       0.000
  1045729              OUTFALL       0.00     0.00     0  00:00           0           0       0.000 ltr
  1045730              OUTFALL       0.00     0.00     0  00:00           0           0       0.000 ltr
  1045742              OUTFALL       0.00     0.00     0  00:00           0           0       0.000 ltr
  1045743              OUTFALL       0.00     0.00     0  00:00           0           0       0.000 ltr
  1048905              OUTFALL       0.00     0.11     0  23:08           0    0.000592       0.000
  HIGH_LIFT_SPS_OVERFLOW_OUTFALL OUTFALL       0.00     0.00     0  00:00           0           0       0.000 ltr
  PELLS_CREEK_CSO      OUTFALL       0.00     0.00     0  00:00           0           0       0.000 ltr
  10000400_1           STORAGE       0.00    11.87     1  04:11           0     0.00235       0.514
  10000400_2           STORAGE       0.00     0.00     0  00:00           0           0       0.000 ltr
  10000645             STORAGE       0.00    43.56     1  04:07           0        3.45       0.011
  14000026_1           STORAGE       0.00   108.29     1  11:43           0        15.2      -0.006
  14000030_1           STORAGE       0.00    43.35     1  04:11           0       0.841      -0.058
  14000073_1           STORAGE       0.00     9.76     1  04:10           0        1.11      -0.019
  14000101_1           STORAGE       0.00    64.58     1  04:10           0        7.86      -0.003
  14000109_1           STORAGE       0.00     8.81     1  04:10           0       0.674      -0.963
  14000131             STORAGE       0.00     9.11     1  04:10           0        1.04      -0.009
  14000137_1           STORAGE       0.00    37.00     1  04:11           0        4.18      -0.019
  14000162             STORAGE       0.00   305.38     1  10:06           0        40.7      -0.015
  14000163             STORAGE       0.00   113.90     1  09:59           0        12.9       0.053
  14000169             STORAGE       0.00     9.34     1  09:42           0         1.1      -0.000
  
  
  **********************
  Node Surcharge Summary
  **********************
  
  Surcharging occurs when water rises above the top of the highest conduit.
  ---------------------------------------------------------------------
                                               Max. Height   Min. Depth
                                   Hours       Above Crown    Below Rim
  Node                 Type      Surcharged         Meters       Meters
  ---------------------------------------------------------------------
  10000400_A           JUNCTION       34.77          0.635        0.000
  10000400_B           JUNCTION       51.58          7.495        0.000
  10000400_C           JUNCTION       51.57          7.045        0.000
  10000400_D           JUNCTION       51.54          1.371        0.000
  10000400_E           JUNCTION       51.43          0.242        0.000
  10001914             JUNCTION       52.00          0.495       10.299
  
  
  *********************
  Node Flooding Summary
  *********************
  
  No nodes were flooded.
  
  
  **********************
  Storage Volume Summary
  **********************
  
  ------------------------------------------------------------------------------------------------
                         Average    Avg   Evap  Exfil     Maximum    Max    Time of Max    Maximum
                          Volume   Pcnt   Pcnt   Pcnt      Volume   Pcnt     Occurrence    Outflow
  Storage Unit           1000 mł   Full   Loss   Loss     1000 mł   Full    days hr:min        LPS
  ------------------------------------------------------------------------------------------------
  10000400_1               0.000    0.0    0.0    0.0       0.000    0.0       0  00:00      10.21
  10000400_2               0.000    0.0    0.0    0.0       0.000    0.0       0  00:00       0.00
  10000645                 0.001    0.8    0.0    0.0       0.002    1.7       1  04:11      66.44
  14000026_1               0.000    0.0    0.0    0.0       0.129    9.8       0  00:00     313.97
  14000030_1               0.000    0.0    0.0    0.0       0.010   16.0       0  00:00     181.87
  14000073_1               0.000    0.4    0.0    0.0       0.002   18.2       0  00:00      57.24
  14000101_1               0.000    0.0    0.0    0.0       0.026   13.2       0  00:00     113.67
  14000109_1               0.000    0.0    0.0    0.0       0.012   12.6       0  00:00     138.39
  14000131                 0.000    0.0    0.0    0.0       0.004    8.3       0  00:00      42.76
  14000137_1               0.000    0.0    0.0    0.0       0.028   16.7       0  00:00     292.72
  14000162                 0.000    0.0    0.0    0.0       0.037    5.2       0  00:00    1579.00
  14000163                 0.000    0.2    0.0    0.0       0.001    0.3       1  14:41     282.90
  14000169                 0.000    0.0    0.0    0.0       0.000    0.0       0  00:07       9.34
  
  
  ***********************
  Outfall Loading Summary
  ***********************
  
  -----------------------------------------------------------
                         Flow       Avg       Max       Total
                         Freq      Flow      Flow      Volume
  Outfall Node           Pcnt       LPS       LPS    10^6 ltr
  -----------------------------------------------------------
  10001366               0.00      0.00      0.00       0.000
  10001369              99.80    221.49    953.16      40.656
  1045729                0.00      0.00      0.00       0.000
  1045730                0.00      0.00      0.00       0.000
  1045742                0.00      0.00      0.00       0.000
  1045743                0.00      0.00      0.00       0.000
  1048905                3.44      0.06      0.11       0.001
  HIGH_LIFT_SPS_OVERFLOW_OUTFALL   0.00      0.00      0.00       0.000
  PELLS_CREEK_CSO        0.00      0.00      0.00       0.000
  -----------------------------------------------------------
  System                11.47    221.55    953.16      40.656
  
  
  ********************
  Link Flow Summary
  ********************
  
  -----------------------------------------------------------------------------
                                 Maximum  Time of Max   Maximum    Max/    Max/
                                  |Flow|   Occurrence   |Veloc|    Full    Full
  Link                 Type          LPS  days hr:min     m/sec    Flow   Depth
  -----------------------------------------------------------------------------
  10411519             CONDUIT      8.81     1  04:10      1.70    0.00    0.28
  10411521             CONDUIT      0.00     0  00:00      0.00    0.00    0.00
  10411522             CONDUIT      0.00     0  00:00      0.00    0.00    0.00
  10411523             CONDUIT     43.40     1  04:11      0.76    0.01    0.07
  10411529             CONDUIT     43.44     1  04:10      0.58    0.02    0.09
  10413001             CONDUIT      8.85     1  04:10      1.18    0.00    0.04
  10413002             CONDUIT      8.86     1  04:10      1.31    0.00    0.04
  10414018             CONDUIT     21.21     1  04:10      0.41    0.00    0.07
  10414277             CONDUIT     43.58     1  04:10      0.55    0.02    0.09
  10414278             CONDUIT     22.64     1  04:10      1.96    0.00    0.03
  10414538             CONDUIT      0.11     0  23:08      0.00    0.00    0.00
  10414652             CONDUIT      9.13     1  04:10      0.70    0.00    0.04
  10414957             CONDUIT     10.09     1  04:10      1.56    0.00    0.03
  10414991             CONDUIT      9.34     1  09:42      0.41    0.14    0.20
  10414992             CONDUIT      0.00     0  00:00      0.00    0.00    0.00
  10414993             CONDUIT      0.00     0  00:00      0.00    0.00    0.00
  10415071             CONDUIT      0.11     0  23:08      0.00    0.00    0.00
  10415072             CONDUIT      0.00     0  00:00      0.00    0.00    0.00
  10415073             CONDUIT      9.34     1  09:09      1.28    0.01    0.07
  10417004             CONDUIT      7.52     1  04:10      0.35    0.01    0.05
  10417022             CONDUIT     93.34     1  04:10      1.66    0.14    0.25
  10417023             CONDUIT     93.46     1  04:10      1.20    0.02    0.09
  10417024             CONDUIT     93.35     1  04:10      1.21    0.02    0.09
  10417026             CONDUIT     43.35     1  04:11      1.39    0.04    0.14
  19000010             CONDUIT    300.01     0  00:06      1.42    0.16    0.28
  19000011             CONDUIT    283.99     0  00:08      1.33    0.18    0.27
  19000012             CONDUIT    252.27     0  00:10      1.17    0.16    0.26
  19000013             CONDUIT    226.30     0  00:11      0.99    0.16    0.27
  19000045             CONDUIT     67.63     1  11:36      0.57    0.04    0.13
  19000046             CONDUIT     32.54     1  09:11      0.57    0.08    0.19
  19000047             CONDUIT     32.54     0  09:24      0.65    0.08    0.17
  19000048             CONDUIT    198.04     1  10:23      1.37    0.11    0.22
  19000049             CONDUIT      7.90     1  04:10      0.61    0.03    0.11
  19000050             CONDUIT     27.82     1  09:29      0.80    0.12    0.23
  19000051             CONDUIT     27.82     1  09:30      0.83    0.12    0.24
  19000052             CONDUIT     27.82     1  09:32      0.76    0.12    0.24
  19000053             CONDUIT     29.26     1  09:33      0.86    0.13    0.23
  19000054             CONDUIT     29.26     1  09:34      0.91    0.10    0.23
  19000071             CONDUIT    107.69     0  10:03      1.08    0.11    0.21
  19000088             CONDUIT     63.23     1  09:55      1.47    0.06    0.15
  19000089             CONDUIT    318.68     0  00:02      1.33    0.20    0.30
  19000090             CONDUIT     63.23     1  09:55      1.81    0.02    0.21
  19000091             CONDUIT     20.39     1  11:13      0.48    0.08    0.18
  19000121             CONDUIT      7.89     1  04:11      0.80    0.02    0.09
  19000122             CONDUIT    198.05     1  10:24      0.99    0.08    0.09
  19000125             CONDUIT     58.19     1  09:39      0.80    0.08    0.17
  19000126             CONDUIT    136.90     0  00:02      1.75    0.24    0.31
  19000127             CONDUIT    101.50     0  00:02      1.42    0.19    0.26
  19000128             CONDUIT     25.69     1  04:10      0.52    0.14    0.28
  19000129             CONDUIT     25.66     1  04:10      0.72    0.10    0.22
  19000131             CONDUIT     10.00     1  04:17      0.79    0.04    0.13
  19000132             CONDUIT     42.30     1  09:40      0.70    0.08    0.17
  19000133             CONDUIT     42.31     0  09:39      0.50    0.02    0.11
  19000134             CONDUIT     25.58     0  00:15      0.94    0.04    0.14
  19000135             CONDUIT     22.91     0  00:18      0.84    0.04    0.14
  19000136             CONDUIT     63.23     1  09:55      1.07    0.08    0.19
  19000137             CONDUIT     67.63     1  11:37      0.68    0.06    0.12
  19000138             CONDUIT     14.69     1  04:16      0.54    0.07    0.18
  19000139             CONDUIT     14.72     1  04:15      0.54    0.07    0.18
  19000140             CONDUIT     14.82     1  04:13      0.55    0.07    0.18
  19000148             CONDUIT     63.23     1  09:52      1.00    0.09    0.20
  19000149             CONDUIT     63.23     1  09:53      1.02    0.02    0.10
  19000150             CONDUIT     63.23     1  09:54      1.05    0.08    0.19
  19000151             CONDUIT    131.13     1  04:35      1.01    0.06    0.21
  19000152             CONDUIT    131.34     1  04:36      0.85    1.33    0.25
  19000159             CONDUIT     25.81     0  00:11      0.76    0.04    0.16
  19000161             CONDUIT     14.96     1  04:10      0.55    0.07    0.18
  19000163             CONDUIT      7.90     1  04:10      0.36    0.04    0.16
  19000164             CONDUIT      7.91     1  04:10      0.43    0.04    0.14
  19000165             CONDUIT     36.06     1  04:10      0.94    0.14    0.25
  19000166             CONDUIT     35.98     1  04:10      0.93    0.14    0.25
  19000196             CONDUIT      8.88     1  04:10      0.29    0.04    0.20
  19000209             CONDUIT     17.72     1  04:44      0.36    0.04    0.13
  19000210             CONDUIT     17.91     1  04:41      0.37    0.04    0.13
  19000211             CONDUIT     18.06     1  04:36      0.37    0.04    0.13
  19000212             CONDUIT     63.23     1  09:51      1.20    0.07    0.18
  19000213             CONDUIT     67.63     1  11:37      0.83    0.02    0.10
  19000214             CONDUIT     67.63     1  11:37      0.89    0.02    0.10
  19000215             CONDUIT      7.82     1  04:10      0.35    0.02    0.09
  19000216             CONDUIT     25.75     0  00:13      0.92    0.04    0.13
  19000217             CONDUIT     25.95     0  00:14      0.92    0.04    0.14
  19000224             CONDUIT     36.60     1  04:09      0.72    0.16    0.28
  19000239             CONDUIT     17.33     1  04:50      0.37    0.04    0.13
  19000241             CONDUIT     37.00     1  04:11      0.83    0.03    0.12
  19000245             CONDUIT    198.05     1  10:22      1.29    0.12    0.23
  19000246             CONDUIT    185.68     1  04:31      1.53    0.08    0.20
  19000247             CONDUIT    185.14     1  12:11      1.44    0.10    0.21
  19000248             CONDUIT    131.17     1  04:35      1.59    0.04    0.15
  19000249             CONDUIT    131.19     1  04:34      1.74    0.04    0.14
  19000253             CONDUIT    140.58     0  00:26      1.28    0.09    0.19
  19000268             CONDUIT     25.59     1  04:11      0.73    0.12    0.24
  19000288             CONDUIT     32.54     1  09:36      0.64    0.07    0.17
  19000289             CONDUIT     63.39     1  04:14      1.33    0.06    0.17
  19000290             CONDUIT     63.29     1  04:15      1.44    0.05    0.16
  19000291             CONDUIT     63.23     1  09:50      1.12    0.08    0.19
  19000292             CONDUIT    185.18     1  12:08      1.24    0.11    0.23
  19000294             CONDUIT     65.04     1  04:08      0.96    0.13    0.42
  19000296             CONDUIT     42.66     1  09:47      0.42    0.03    0.12
  19000297             CONDUIT     24.23     0  12:00      0.54    0.09    0.18
  19000298             CONDUIT     25.91     0  00:13      0.72    0.07    0.16
  19000299             CONDUIT      7.66     1  04:15      0.35    0.01    0.08
  19000300             CONDUIT      7.23     1  04:21      0.33    0.01    0.08
  19000301             CONDUIT      7.38     1  04:25      0.34    0.01    0.08
  19000302             CONDUIT      7.14     1  04:30      0.32    0.01    0.09
  19000303             CONDUIT      6.75     1  04:35      0.37    0.01    0.07
  19000304             CONDUIT     54.63     1  04:41      0.57    0.03    0.12
  19000305             CONDUIT      0.00     0  00:00      0.00    0.00    0.07
  19000306             CONDUIT     20.39     0  11:08      0.70    0.04    0.14
  19000307             CONDUIT     20.39     0  11:34      0.51    0.06    0.17
  19000308             CONDUIT    158.38     0  00:19      0.95    0.10    0.21
  19000309             CONDUIT    302.37     0  00:04      1.51    0.18    0.28
  19000310             CONDUIT    211.19     0  00:13      1.17    0.18    0.26
  19000311             CONDUIT    186.75     0  00:15      1.19    0.12    0.23
  19000312             CONDUIT    166.98     0  00:18      1.05    0.10    0.21
  19000313             CONDUIT      0.00     0  00:00      0.00    0.00    0.06
  19000314             CONDUIT     64.58     1  04:10      0.79    0.12    0.19
  19000315             CONDUIT     10.24     1  04:12      0.50    0.07    0.21
  19000316             CONDUIT     43.10     1  04:16      0.64    0.03    0.11
  19000317             CONDUIT     10.36     1  04:11      0.50    0.08    0.19
  19000318             CONDUIT     10.51     1  04:10      0.60    0.08    0.20
  19000319             CONDUIT     42.66     1  09:42      0.49    0.02    0.11
  19000320             CONDUIT     54.25     1  04:46      0.52    0.03    0.12
  19000321             CONDUIT     42.67     1  10:02      0.50    0.03    0.11
  19000322             CONDUIT     67.64     0  11:38      0.73    0.03    0.11
  19000333             CONDUIT     79.44     0  00:04      1.04    0.12    0.23
  19000334             CONDUIT     78.68     0  00:04      1.01    0.13    0.23
  19000335             CONDUIT     63.68     1  04:13      1.00    0.09    0.20
  19000350             CONDUIT     25.71     1  04:10      0.57    0.14    0.26
  19000351             CONDUIT     32.58     1  09:14      0.60    0.08    0.18
  19000352             CONDUIT     32.54     1  09:33      0.62    0.08    0.18
  19000353             CONDUIT     32.54     1  10:00      0.66    0.07    0.17
  19000354             CONDUIT     32.54     0  09:35      0.64    0.07    0.17
  19000358             CONDUIT     25.33     1  04:12      0.69    0.13    0.23
  19000359             CONDUIT     27.99     1  04:09      0.54    0.03    0.16
  19000364             CONDUIT     63.51     1  04:14      1.14    0.07    0.18
  19000365             CONDUIT     70.60     0  00:04      1.36    0.13    0.22
  19000366             CONDUIT     27.82     1  09:27      0.85    0.11    0.23
  19000367             CONDUIT     27.82     1  09:28      0.84    0.11    0.23
  19000368             CONDUIT     28.06     1  09:01      0.92    0.10    0.22
  19000369             CONDUIT     46.48     0  00:06      1.25    0.08    0.17
  19000370             CONDUIT     31.63     0  00:09      1.04    0.06    0.15
  19000371             CONDUIT     17.94     1  04:32      0.39    0.03    0.13
  19000372             CONDUIT     18.19     1  04:29      0.40    0.04    0.12
  19000373             CONDUIT    198.04     1  10:22      1.34    0.12    0.23
  19000374             CONDUIT     37.02     1  04:11      0.85    0.02    0.10
[...]
  19000163                1.00   0.00  0.00  0.00  1.00  0.00  0.00  0.00  0.99  0.00
  19000164                1.00   0.00  0.00  0.00  1.00  0.00  0.00  0.00  0.00  0.00
  19000165                1.00   0.00  0.00  0.00  0.90  0.10  0.00  0.00  0.94  0.00
  19000166                1.00   0.00  0.00  0.00  0.98  0.02  0.00  0.00  0.94  0.00
  19000196                1.00   0.00  0.00  0.00  1.00  0.00  0.00  0.00  1.00  0.00
  19000209                1.00   0.01  0.00  0.00  0.99  0.00  0.00  0.00  0.93  0.00
  19000210                1.00   0.01  0.00  0.00  0.99  0.00  0.00  0.00  0.78  0.00
  19000211                1.00   0.01  0.00  0.00  0.99  0.00  0.00  0.00  0.33  0.00
  19000212                1.00   0.00  0.00  0.00  0.00  0.00  0.00  1.00  0.00  0.00
  19000213                1.00   0.00  0.00  0.00  1.00  0.00  0.00  0.00  1.00  0.00
  19000214                1.44   0.00  0.00  0.00  0.00  0.00  0.00  1.00  0.00  0.00
  19000215                1.00   0.00  0.00  0.00  0.00  0.00  0.00  1.00  0.00  0.00
  19000216                1.00   0.00  0.00  0.00  0.00  1.00  0.00  0.00  1.00  0.00
  19000217                1.10   0.00  0.00  0.00  0.20  0.80  0.00  0.00  1.00  0.00
  19000224                1.00   0.00  0.00  0.00  1.00  0.00  0.00  0.00  0.00  0.00
  19000239                1.00   0.01  0.00  0.00  0.99  0.00  0.00  0.00  0.00  0.00
  19000241                1.19   0.00  0.00  0.00  0.00  0.00  0.00  1.00  0.00  0.00
  19000245                1.00   0.00  0.00  0.00  1.00  0.00  0.00  0.00  0.98  0.00
  19000246                1.00   0.00  0.00  0.00  0.01  0.99  0.00  0.00  0.99  0.00
  19000247                1.00   0.00  0.00  0.00  0.00  0.99  0.00  0.00  0.00  0.00
  19000248                1.00   0.00  0.00  0.00  0.00  0.99  0.00  0.00  0.99  0.00
  19000249                1.00   0.00  0.00  0.00  0.00  1.00  0.00  0.00  0.99  0.00
  19000253                1.00   0.00  0.00  0.00  0.24  0.75  0.00  0.00  0.00  0.00
  19000268                1.00   0.00  0.00  0.00  1.00  0.00  0.00  0.00  1.00  0.00
  19000288                1.00   0.00  0.00  0.00  0.99  0.00  0.00  0.00  0.00  0.00
  19000289                1.00   0.00  0.00  0.00  0.00  0.00  0.00  1.00  0.00  0.00
  19000290                1.00   0.00  0.00  0.00  0.00  0.00  0.00  1.00  0.00  0.00
  19000291                1.00   0.00  0.00  0.00  0.00  0.00  0.00  1.00  0.00  0.00
  19000292                1.00   0.00  0.00  0.00  0.99  0.00  0.00  0.00  0.95  0.00
  19000294                1.05   0.00  0.00  0.00  0.05  0.95  0.00  0.00  0.06  0.00
  19000296                1.00   0.00  0.00  0.00  1.00  0.00  0.00  0.00  0.98  0.00
  19000297                1.00   0.00  0.00  0.00  0.00  0.00  0.00  1.00  0.00  0.00
  19000298                1.00   0.00  0.00  0.00  1.00  0.00  0.00  0.00  0.00  0.00
  19000299                1.00   0.00  0.00  0.00  1.00  0.00  0.00  0.00  0.93  0.00
  19000300                1.00   0.00  0.00  0.00  1.00  0.00  0.00  0.00  0.95  0.00
  19000301                1.00   0.00  0.00  0.00  1.00  0.00  0.00  0.00  0.11  0.00
  19000302                1.00   0.00  0.00  0.00  1.00  0.00  0.00  0.00  0.97  0.00
  19000303                1.00   0.01  0.00  0.00  0.00  0.00  0.00  0.99  0.00  0.00
  19000304                1.00   0.00  0.00  0.00  1.00  0.00  0.00  0.00  0.85  0.00
  19000305                1.03   0.00  1.00  0.00  0.00  0.00  0.00  0.00  0.00  0.00
  19000306                1.01   0.00  0.00  0.00  1.00  0.00  0.00  0.00  0.99  0.00
  19000307                1.00   0.00  0.00  0.00  1.00  0.00  0.00  0.00  0.99  0.00
  19000308                1.00   0.00  0.00  0.00  1.00  0.00  0.00  0.00  0.02  0.00
  19000309                1.00   0.00  0.00  0.00  1.00  0.00  0.00  0.00  0.01  0.00
  19000310                1.00   0.00  0.00  0.00  1.00  0.00  0.00  0.00  0.01  0.00
  19000311                1.00   0.00  0.00  0.00  1.00  0.00  0.00  0.00  0.01  0.00
  19000312                1.00   0.00  0.00  0.00  1.00  0.00  0.00  0.00  0.01  0.00
  19000313                1.00   0.00  1.00  0.00  0.00  0.00  0.00  0.00  0.00  0.00
  19000314                1.00   0.00  0.00  0.00  0.00  0.00  0.00  1.00  0.00  0.00
  19000315                1.00   0.00  0.00  0.00  1.00  0.00  0.00  0.00  0.99  0.00
  19000316                1.00   0.00  0.00  0.00  0.00  0.00  0.00  1.00  0.00  0.00
  19000317                1.00   0.00  0.00  0.00  1.00  0.00  0.00  0.00  0.00  0.00
  19000318                1.00   0.00  0.00  0.00  1.00  0.00  0.00  0.00  0.99  0.00
  19000319                1.00   0.00  0.00  0.00  1.00  0.00  0.00  0.00  0.99  0.00
  19000320                1.00   0.00  0.00  0.00  1.00  0.00  0.00  0.00  0.99  0.00
  19000321                1.00   0.00  0.00  0.00  0.86  0.00  0.00  0.14  0.00  0.00
  19000322                1.00   0.00  0.00  0.00  1.00  0.00  0.00  0.00  0.02  0.00
  19000333                1.00   0.00  0.00  0.00  0.00  0.00  0.00  1.00  0.00  0.00
  19000334                1.02   0.00  0.00  0.00  0.00  0.00  0.00  1.00  0.00  0.00
  19000335                1.00   0.00  0.00  0.00  0.00  0.00  0.00  1.00  0.00  0.00
  19000350                1.00   0.00  0.00  0.00  1.00  0.00  0.00  0.00  0.33  0.00
  19000351                1.00   0.00  0.00  0.00  0.99  0.00  0.00  0.01  0.00  0.00
  19000352                1.00   0.00  0.00  0.00  0.00  0.00  0.00  1.00  0.00  0.00
  19000353                1.00   0.00  0.00  0.00  0.00  0.00  0.00  1.00  0.00  0.00
  19000354                1.00   0.00  0.00  0.00  0.99  0.00  0.00  0.01  0.00  0.00
  19000358                1.00   0.00  0.00  0.00  0.00  0.00  0.00  1.00  0.00  0.00
  19000359                1.00   0.01  0.00  0.00  0.99  0.00  0.00  0.00  0.99  0.00
  19000364                1.00   0.00  0.00  0.00  0.00  0.00  0.00  1.00  0.00  0.00
  19000365                1.00   0.00  0.00  0.00  1.00  0.00  0.00  0.00  0.14  0.00
  19000366                1.00   0.00  0.00  0.00  1.00  0.00  0.00  0.00  0.92  0.00
  19000367                1.00   0.00  0.00  0.00  1.00  0.00  0.00  0.00  0.99  0.00
  19000368                1.00   0.00  0.00  0.00  1.00  0.00  0.00  0.00  0.99  0.00
  19000369                1.00   0.00  0.00  0.00  1.00  0.00  0.00  0.00  0.96  0.00
  19000370                1.00   0.00  0.00  0.00  1.00  0.00  0.00  0.00  0.02  0.00
  19000371                1.00   0.01  0.00  0.00  0.99  0.00  0.00  0.00  0.95  0.00
  19000372                1.00   0.01  0.00  0.00  0.99  0.00  0.00  0.00  0.01  0.00
  19000373                1.00   0.00  0.00  0.00  0.02  0.98  0.00  0.00  0.00  0.00
  19000374                1.47   0.00  0.00  0.00  0.36  0.64  0.00  0.00  1.00  0.00
  19000426                1.00   0.00  0.00  0.00  1.00  0.00  0.00  0.00  1.00  0.00
  19000427                1.00   0.00  0.00  0.00  0.47  0.00  0.00  0.53  0.00  0.00
  19000428                1.00   0.00  0.00  0.00  0.99  0.00  0.00  0.01  0.00  0.00
  19000429                1.00   0.00  0.00  0.00  0.99  0.00  0.00  0.01  0.00  0.00
  19000430                1.00   0.00  0.00  0.00  0.99  0.00  0.00  0.01  0.82  0.00
  19000431                1.00   0.00  0.00  0.00  0.00  0.00  0.00  1.00  0.00  0.00
  19000432                1.00   0.00  0.00  0.00  1.00  0.00  0.00  0.00  0.00  0.00
  19000433                1.00   0.01  0.00  0.00  0.99  0.00  0.00  0.00  0.03  0.00
  19000434                1.00   0.00  0.00  0.00  1.00  0.00  0.00  0.00  0.02  0.00
  19000439                1.00   0.00  0.00  0.00  1.00  0.00  0.00  0.00  0.02  0.00
  19000440                1.00   0.00  0.00  0.00  0.00  0.00  0.00  1.00  0.00  0.00
  19000441                1.00   0.00  0.00  0.00  0.00  0.00  0.00  1.00  0.00  0.00
  19000442                1.00   0.00  0.00  0.00  0.00  0.00  0.00  1.00  0.00  0.00
  19000465                1.00   0.00  0.00  0.00  1.00  0.00  0.00  0.00  0.01  0.00
  19000503                1.00   0.00  0.00  0.00  0.00  0.00  0.00  1.00  0.00  0.00
  19000504                1.00   0.01  0.00  0.00  0.69  0.00  0.00  0.31  0.00  0.00
  19000505                1.00   0.00  0.00  0.00  1.00  0.00  0.00  0.00  0.00  0.00
  19000506                1.00   0.00  0.00  0.00  0.99  0.00  0.00  0.01  0.02  0.00
  19000507                1.00   0.00  0.00  0.00  0.00  0.00  0.00  1.00  0.00  0.00
  19000508                1.00   0.00  0.00  0.00  1.00  0.00  0.00  0.00  1.00  0.00
  19000509                1.00   0.00  0.00  0.00  0.99  0.01  0.00  0.00  0.57  0.00
  19000510                1.00   0.00  0.00  0.00  0.00  0.00  0.00  1.00  0.00  0.00
  19000511                1.00   0.00  0.00  0.00  0.00  0.00  0.00  1.00  0.00  0.00
  19000551                1.00   0.00  0.00  0.00  0.00  0.00  0.00  1.00  0.00  0.00
  19000585                1.00   0.00  0.00  0.00  0.00  0.00  0.00  1.00  0.00  0.00
  19000587                1.00   0.00  0.00  0.00  0.00  0.99  0.00  0.00  0.00  0.00
  19000588                1.00   0.00  0.00  0.00  1.00  0.00  0.00  0.00  1.00  0.00
  19000589                1.00   0.00  0.00  0.00  1.00  0.00  0.00  0.00  0.99  0.00
  19000606                1.00   0.00  0.00  0.00  1.00  0.00  0.00  0.00  0.00  0.00
  19000607                1.00   0.00  0.00  0.00  1.00  0.00  0.00  0.00  0.99  0.00
  19000608                1.00   0.00  0.00  0.00  1.00  0.00  0.00  0.00  0.98  0.00
  19000609                1.00   0.00  0.00  0.00  0.00  0.00  0.00  1.00  0.00  0.00
  19000610                1.00   0.00  0.00  0.00  0.00  0.00  0.00  1.00  0.00  0.00
  19000611                1.00   0.00  0.00  0.00  1.00  0.00  0.00  0.00  0.22  0.00
  19000612                1.00   0.00  0.00  0.00  1.00  0.00  0.00  0.00  0.00  0.00
  19000613                1.00   0.00  0.00  0.00  0.02  0.98  0.00  0.00  0.99  0.00
  19000615                1.00   0.00  0.00  0.00  1.00  0.00  0.00  0.00  0.99  0.00
  19000618                1.00   0.00  0.00  0.00  1.00  0.00  0.00  0.00  0.01  0.00
  19000619                1.00   0.02  0.00  0.00  0.00  0.00  0.00  0.98  0.00  0.00
  19000620                1.00   0.02  0.00  0.00  0.98  0.00  0.00  0.00  0.97  0.00
  19000621                1.00   0.02  0.00  0.00  0.98  0.00  0.00  0.00  0.03  0.00
  19000622                1.00   0.02  0.00  0.00  0.98  0.00  0.00  0.00  0.94  0.00
  19000650                1.00   1.00  0.00  0.00  0.00  0.00  0.00  0.00  0.00  0.00
  19000666                1.00   0.00  0.00  0.00  1.00  0.00  0.00  0.00  0.96  0.00
  19000667                1.00   0.00  0.00  0.00  1.00  0.00  0.00  0.00  1.00  0.00
  19000668                1.00   0.01  0.00  0.00  0.00  0.00  0.00  0.99  0.00  0.00
  19000669                1.00   0.01  0.00  0.00  0.98  0.00  0.00  0.01  0.97  0.00
  19000670                1.00   0.00  0.00  0.00  0.00  0.00  0.00  1.00  0.00  0.00
  19000671                1.00   0.00  0.00  0.00  1.00  0.00  0.00  0.00  0.97  0.00
  19000672                1.00   0.00  0.00  0.00  0.00  0.00  0.00  1.00  0.00  0.00
  19000673                1.00   0.00  0.00  0.00  1.00  0.00  0.00  0.00  0.97  0.00
  19000674                1.00   0.00  0.00  0.00  1.00  0.00  0.00  0.00  0.81  0.00
  19000679                1.00   0.00  0.00  0.00  1.00  0.00  0.00  0.00  0.04  0.00
  19000684                1.00   0.00  0.00  0.00  0.99  0.00  0.00  0.00  0.96  0.00
  19000686                1.00   0.00  0.00  0.00  0.37  0.63  0.00  0.00  0.00  0.00
  19000687                1.00   0.00  0.00  0.00  0.01  0.99  0.00  0.00  0.97  0.00
  19000688                1.00   0.00  0.00  0.00  0.01  0.99  0.00  0.00  0.99  0.00
  19000689                1.00   0.00  0.00  0.00  0.01  0.99  0.00  0.00  0.99  0.00
  19000690                1.00   0.00  0.00  0.00  1.00  0.00  0.00  0.00  0.00  0.00
  19000691                1.00   0.00  0.00  0.00  1.00  0.00  0.00  0.00  0.99  0.00
  19000692                1.00   0.00  0.00  0.00  1.00  0.00  0.00  0.00  0.02  0.00
  19000693                1.00   0.00  0.00  0.00  0.00  1.00  0.00  0.00  0.99  0.00
  19000694                1.00   0.00  0.00  0.00  0.00  1.00  0.00  0.00  0.00  0.00
  19000695                1.00   0.00  0.00  0.00  0.00  1.00  0.00  0.00  0.02  0.00
  19000696                1.00   0.00  0.00  0.00  0.00  1.00  0.00  0.00  0.99  0.00
  19000763                1.00   1.00  0.00  0.00  0.00  0.00  0.00  0.00  0.00  0.00
  19000818                1.00   0.00  0.00  0.00  0.17  0.83  0.00  0.00  0.20  0.00
  19000823                1.00   0.00  0.00  0.00  0.00  0.00  0.00  1.00  0.00  0.00
  19001284                1.09   0.00  0.00  0.00  1.00  0.00  0.00  0.00  0.12  0.00
  19001285                1.00   0.00  0.00  0.00  1.00  0.00  0.00  0.00  0.99  0.00
  19001329                1.00   0.00  0.00  0.00  0.00  1.00  0.00  0.00  0.18  0.00
  19001330                1.00   0.00  0.00  0.00  0.00  0.00  0.00  1.00  0.00  0.00
  19001332                1.00   0.00  0.00  0.00  0.00  0.00  0.00  1.00  0.00  0.00
  19001334                2.42   0.00  0.00  0.00  0.00  0.00  0.00  1.00  0.00  0.00
  19001335                1.00   0.00  0.00  0.00  0.00  0.00  0.00  1.00  0.00  0.00
  19001336                1.00   0.00  0.00  0.00  0.98  0.00  0.00  0.02  0.00  0.00
  19001337                1.00   0.00  0.00  0.00  0.00  0.00  0.00  1.00  0.00  0.00
  19001338                1.00   0.00  0.00  0.00  0.99  0.00  0.00  0.00  0.00  0.00
  19001339                1.00   0.00  0.00  0.00  0.98  0.00  0.00  0.02  0.00  0.00
  19001447                1.00   0.00  0.01  0.00  0.99  0.00  0.00  0.00  0.00  0.00
  19001448                1.00   0.00  0.00  0.00  1.00  0.00  0.00  0.00  1.00  0.00
  19001487                1.60   1.00  0.00  0.00  0.00  0.00  0.00  0.00  0.00  0.00
  19001488                1.26   1.00  0.00  0.00  0.00  0.00  0.00  0.00  0.00  0.00
  19001489                1.29   0.00  0.00  0.00  0.00  1.00  0.00  0.00  0.00  0.00
  19001490                2.66   0.00  0.00  0.00  0.00  1.00  0.00  0.00  1.00  0.00
  19001493                1.00   0.00  0.00  0.00  0.00  1.00  0.00  0.00  0.00  0.00
  19001494                2.83   0.00  0.00  0.00  0.00  1.00  0.00  0.00  1.00  0.00
  19001495                1.00   0.00  0.00  0.00  1.00  0.00  0.00  0.00  1.00  0.00
  19001496                1.00   0.00  0.00  0.00  0.00  0.00  1.00  0.00  0.00  0.00
  19001497                1.00   0.00  0.00  0.00  1.00  0.00  0.00  0.00  1.00  0.00
  19001827                1.00   0.00  0.00  0.00  1.00  0.00  0.00  0.00  1.00  0.00
  19001828                1.00   0.44  0.00  0.00  0.56  0.00  0.00  0.00  0.39  0.00
  19001829                1.00   0.44  0.00  0.00  0.56  0.00  0.00  0.00  0.54  0.00
  19001830                4.34   1.00  0.00  0.00  0.00  0.00  0.00  0.00  0.00  0.00
  19001833                1.00   0.44  0.00  0.00  0.00  0.00  0.00  0.56  0.00  0.00
  19001834                1.22   0.00  0.00  0.00  0.00  1.00  0.00  0.00  0.00  0.00
  DORCHESTER_SPS_PIPE     1.11   0.00  0.00  0.00  1.00  0.00  0.00  0.00  0.00  0.00
  DRUMMOND_INFLOW         1.00   0.00  0.00  0.00  0.00  0.00  0.00  1.00  0.00  0.00
  HIGH_LIFT_SPS_OVERFLOW_PIPE    1.00   1.00  0.00  0.00  0.00  0.00  0.00  0.00  0.00  0.00
  LOW_LIFT_PS_WEST_INLET    1.00   0.00  0.02  0.00  0.98  0.00  0.00  0.00  0.98  0.00
  PELLS_CREEK_OVERFLOW    1.00   1.00  0.00  0.00  0.00  0.00  0.00  0.00  0.00  0.00
  SIPHON_200              1.07   0.00  0.00  0.00  0.99  0.01  0.00  0.00  0.83  0.00
  SIPHON_200A             2.30   0.00  0.00  0.00  1.00  0.00  0.00  0.00  0.01  0.00
  SIPHON_200B             1.00   0.00  0.01  0.00  0.99  0.00  0.00  0.00  0.00  0.00
  SIPHON_200C             1.40   0.01  0.00  0.00  0.99  0.00  0.00  0.00  0.00  0.00
  SIPHON_200D             1.00   0.01  0.00  0.00  0.99  0.00  0.00  0.00  0.00  0.00
  SIPHON_200E             1.00   0.01  0.00  0.00  0.00  0.00  0.99  0.00  0.00  0.00
  SIPHON_400              1.65   0.54  0.00  0.00  0.45  0.00  0.00  0.00  0.46  0.00
  SIPHON_400A             1.78   0.54  0.45  0.00  0.01  0.00  0.00  0.00  0.46  0.00
  SIPHON_400B             1.00   0.54  0.46  0.00  0.00  0.00  0.00  0.00  0.00  0.00
  SIPHON_400C             2.17   1.00  0.00  0.00  0.00  0.00  0.00  0.00  0.00  0.00
  SIPHON_400D             1.24   1.00  0.00  0.00  0.00  0.00  0.00  0.00  0.00  0.00
  SIPHON_600              2.18   1.00  0.00  0.00  0.00  0.00  0.00  0.00  0.00  0.00
  SIPHON_600A             1.15   1.00  0.00  0.00  0.00  0.00  0.00  0.00  0.00  0.00
  SIPHON_600B             1.00   1.00  0.00  0.00  0.00  0.00  0.00  0.00  0.00  0.00
  SIPHON_600C             2.80   1.00  0.00  0.00  0.00  0.00  0.00  0.00  0.00  0.00
  SIPHON_600D             1.69   1.00  0.00  0.00  0.00  0.00  0.00  0.00  0.00  0.00
  
  
  *************************
  Conduit Surcharge Summary
  *************************
  
  ----------------------------------------------------------------------------
                                                           Hours        Hours 
                         --------- Hours Full --------   Above Full   Capacity
  Conduit                Both Ends  Upstream  Dnstream   Normal Flow   Limited
  ----------------------------------------------------------------------------
  19000152                    0.01      0.01      0.01     27.50         0.01
  SIPHON_200                  0.46      0.46     51.47      0.01         0.01
  SIPHON_200A                34.77     34.77     51.58      0.01         0.01
  SIPHON_200B                51.57     51.57     51.64      0.01         0.01
  SIPHON_200C                51.54     51.54     51.56      0.01         0.01
  SIPHON_200D                51.43     51.43     51.54      0.01         0.01
  SIPHON_200E                 0.01      0.01     51.43      8.39         0.01
  
  
  ***************
  Pumping Summary
  ***************
  
  ---------------------------------------------------------------------------------------------------------
                                                  Min       Avg       Max     Total     Power    % Time Off
                        Percent   Number of      Flow      Flow      Flow    Volume     Usage    Pump Curve
  Pump                 Utilized   Start-Ups       LPS       LPS       LPS  10^6 ltr     Kw-hr    Low   High
  ---------------------------------------------------------------------------------------------------------
  14000026_P1             99.84           2      0.00     82.87    313.97    15.219    905.04    0.0    0.0
  14000030_P1             99.93           2      0.00      4.67    181.87     0.841     27.48    0.0    0.0
  14000073_P1             99.97           7      0.00      6.08     57.24     1.108     33.26    0.0    0.0
  14000101_P1            100.00           1      0.00     43.14    113.67     7.858    432.45    0.0    0.0
  14000109_P1            100.00           1      0.00      3.74    138.39     0.680     61.84    0.0    0.0
  14000131_P1            100.00           1      0.00      5.73     42.76     1.040     12.77    0.0    0.0
  14000137_P1             99.90           2      0.00     22.73    292.72     4.183    184.57    0.0    0.0
  14000163_1              99.79           6      0.00     71.04    282.90    12.939    468.17    0.0    0.0
  14000169_P1             99.78           1      0.00      6.05      9.34     1.099     44.34    0.0    0.0
  19001331                99.60           2      0.00    222.12   1579.00    40.661   1192.25    0.0    0.0
  CENTRAL_HRT_INLET       99.81           1      0.00     71.05    113.90    12.948    173.41    0.0    0.0
  CENTRAL_HRT_TREATED_OVERFLOW     0.00           0      0.00      0.00      0.00     0.000      0.00    0.0    0.0
  CENTRAL_HRT_UNDERFLOW    99.80           2      0.00     71.05    113.90    12.948    114.19    0.0    0.0
  

  Analysis begun on:  Tue Jun 23 20:54:14 2026
  Analysis ended on:  Tue Jun 23 20:54:20 2026
  Total elapsed time: 00:00:06