
  EPA STORM WATER MANAGEMENT MODEL - VERSION 5.2 (Build 5.2.4)
  ------------------------------------------------------------

   MODELACION CATARROJA 
  
  ****************
  Analysis Options
  ****************
  Flow Units ............... CFS
  Process Models:
    Rainfall/Runoff ........ YES
    RDII ................... NO
    Snowmelt ............... NO
    Groundwater ............ NO
    Flow Routing ........... YES
    Ponding Allowed ........ NO
    Water Quality .......... YES
  Infiltration Method ...... HORTON
  Flow Routing Method ...... KINWAVE
  Starting Date ............ 01/01/1998 00:00:00
  Ending Date .............. 01/01/1998 06:00:00
  Antecedent Dry Days ...... 5.0
  Report Time Step ......... 00:01:00
  Wet Time Step ............ 00:01:00
  Dry Time Step ............ 01:00:00
  Routing Time Step ........ 30.00 sec
  
  
  **************************        Volume         Depth
  Runoff Quantity Continuity     acre-feet        inches
  **************************     ---------       -------
  Total Precipitation ......         2.108         2.300
  Evaporation Loss .........         0.000         0.000
  Infiltration Loss ........         0.537         0.586
  Surface Runoff ...........         1.475         1.609
  Final Storage ............         0.096         0.105
  Continuity Error (%) .....        -0.014
  
  
  **************************           TSS
  Runoff Quality Continuity            lbs
  **************************    ----------
  Initial Buildup ..........      1571.429
  Surface Buildup ..........         1.775
  Wet Deposition ...........         0.000
  Sweeping Removal .........         0.000
  Infiltration Loss ........         0.000
  BMP Removal ..............         0.000
  Surface Runoff ...........         0.038
  Remaining Buildup ........      1573.166
  Continuity Error (%) .....         0.000
  
  
  **************************        Volume        Volume
  Flow Routing Continuity        acre-feet      10^6 gal
  **************************     ---------     ---------
  Dry Weather Inflow .......         0.000         0.000
  Wet Weather Inflow .......         1.475         0.481
  Groundwater Inflow .......         0.000         0.000
  RDII Inflow ..............         0.000         0.000
  External Inflow ..........         0.000         0.000
  External Outflow .........         1.459         0.475
  Flooding Loss ............         0.000         0.000
  Evaporation Loss .........         0.000         0.000
  Exfiltration Loss ........         0.000         0.000
  Initial Stored Volume ....         0.000         0.000
  Final Stored Volume ......         0.044         0.014
  Continuity Error (%) .....        -1.925
  
  
  **************************           TSS
  Quality Routing Continuity           lbs
  **************************    ----------
  Dry Weather Inflow .......         0.000
  Wet Weather Inflow .......         0.038
  Groundwater Inflow .......         0.000
  RDII Inflow ..............         0.000
  External Inflow ..........         0.000
  External Outflow .........         0.036
  Flooding Loss ............         0.000
  Exfiltration Loss ........         0.000
  Mass Reacted .............         0.000
  Initial Stored Mass ......         0.000
  Final Stored Mass ........         0.001
  Continuity Error (%) .....         1.178
  
  
  ********************************
  Highest Flow Instability Indexes
  ********************************
  Link 4 (1)
  Link 5 (1)
  
  
  *************************
  Routing Time Step Summary
  *************************
  Minimum Time Step           :    30.00 sec
  Average Time Step           :    30.00 sec
  Maximum Time Step           :    30.00 sec
  % of Time in Steady State   :     0.00
  Average Iterations per Step :     1.83
  % of Steps Not Converging   :     0.00
  
  
  ***************************
  Subcatchment Runoff Summary
  ***************************
  
  ------------------------------------------------------------------------------------------------------------------------------
                            Total      Total      Total      Total     Imperv       Perv      Total       Total     Peak  Runoff
                           Precip      Runon       Evap      Infil     Runoff     Runoff     Runoff      Runoff   Runoff   Coeff
  Subcatchment                 in         in         in         in         in         in         in    10^6 gal      CFS
  ------------------------------------------------------------------------------------------------------------------------------
  PICASSENT                  2.30       0.00       0.00       0.40       1.39       0.40       1.79        0.29    15.56   0.778
  SILLA                      2.30       0.00       0.00       0.80       1.39       0.00       1.39        0.19     9.42   0.605
  
  
  ****************************
  Subcatchment Washoff Summary
  ****************************
  
  ----------------------------------
                                 TSS
  Subcatchment                   lbs
  ----------------------------------
  PICASSENT                    0.023
  SILLA                        0.015
  ----------------------------------
  System                       0.038
  
  
  ******************
  Node Depth Summary
  ******************
  
  ---------------------------------------------------------------------------------
                                 Average  Maximum  Maximum  Time of Max    Reported
                                   Depth    Depth      HGL   Occurrence   Max Depth
  Node                 Type         Feet     Feet     Feet  days hr:min        Feet
  ---------------------------------------------------------------------------------
  2                    JUNCTION     0.19     0.83   218.23     0  01:10        0.83
  3                    JUNCTION     0.30     1.40   215.20     0  01:11        1.40
  4                    JUNCTION     0.31     1.40   213.80     0  01:14        1.39
  5                    JUNCTION     0.31     1.40   213.30     0  01:15        1.40
  21                   JUNCTION     0.20     0.98   322.18     0  01:10        0.98
  22                   JUNCTION     0.22     1.08   318.38     0  01:10        1.08
  23                   JUNCTION     0.24     1.18   313.38     0  01:11        1.18
  24                   JUNCTION     0.28     1.37   300.37     0  01:13        1.37
  25                   JUNCTION     0.28     1.36   296.36     0  01:15        1.36
  26                   JUNCTION     0.23     1.08   289.68     0  01:16        1.08
  27                   JUNCTION     0.25     1.20   283.90     0  01:16        1.20
  28                   JUNCTION     0.25     1.20   281.20     0  01:17        1.19
  29                   JUNCTION     0.24     1.11   272.01     0  01:20        1.11
  30                   JUNCTION     0.25     1.15   268.65     0  01:20        1.15
  31                   JUNCTION     0.25     1.15   266.05     0  01:22        1.15
  32                   JUNCTION     0.25     1.17   261.77     0  01:23        1.17
  33                   JUNCTION     0.26     1.18   255.28     0  01:24        1.18
  34                   JUNCTION     0.26     1.18   252.78     0  01:26        1.18
  35                   JUNCTION     0.24     1.12   249.52     0  01:26        1.12
  36                   JUNCTION     0.26     1.20   243.40     0  01:27        1.20
  37                   JUNCTION     0.26     1.20   236.90     0  01:31        1.20
  38                   JUNCTION     0.27     1.22   230.22     0  01:33        1.22
  39                   JUNCTION     0.27     1.19   219.79     0  01:39        1.18
  40                   JUNCTION     0.26     1.12   212.62     0  01:42        1.12
  41                   JUNCTION     0.25     0.90   204.30     0  01:34        0.90
  42                   JUNCTION     0.25     0.88   200.98     0  01:38        0.88
  43                   JUNCTION     0.25     0.88   198.98     0  01:42        0.87
  44                   JUNCTION     0.31     1.11   197.41     0  01:45        1.11
  46                   JUNCTION     0.32     1.08   196.48     0  01:55        1.08
  47                   JUNCTION     0.29     0.98   195.78     0  01:48        0.98
  49                   JUNCTION     0.33     1.27   210.27     0  01:30        1.27
  51                   JUNCTION     0.31     1.19   209.89     0  01:30        1.19
  50                   JUNCTION     0.26     0.91   194.61     0  01:53        0.91
  
  
  *******************
  Node Inflow Summary
  *******************
  
  -------------------------------------------------------------------------------------------------
                                  Maximum  Maximum                  Lateral       Total        Flow
                                  Lateral    Total  Time of Max      Inflow      Inflow     Balance
                                   Inflow   Inflow   Occurrence      Volume      Volume       Error
  Node                 Type           CFS      CFS  days hr:min    10^6 gal    10^6 gal     Percent
  -------------------------------------------------------------------------------------------------
  2                    JUNCTION      9.42     9.42     0  01:10       0.189       0.189       0.000
  3                    JUNCTION      0.00     9.46     0  01:11           0       0.188       0.000
  4                    JUNCTION      0.00     9.38     0  01:14           0       0.189       0.000
  5                    JUNCTION      0.00     9.37     0  01:15           0       0.188       0.000
  21                   JUNCTION     15.56    15.56     0  01:10       0.292       0.292       0.000
  22                   JUNCTION      0.00    15.55     0  01:10           0       0.291       0.000
  23                   JUNCTION      0.00    15.54     0  01:11           0       0.291       0.000
  24                   JUNCTION      0.00    15.57     0  01:13           0        0.29       0.000
  25                   JUNCTION      0.00    15.48     0  01:15           0        0.29       0.000
  26                   JUNCTION      0.00    15.43     0  01:16           0       0.289       0.000
  27                   JUNCTION      0.00    15.42     0  01:16           0       0.288       0.000
  28                   JUNCTION      0.00    15.38     0  01:17           0       0.288       0.000
  29                   JUNCTION      0.00    15.22     0  01:20           0       0.287       0.000
  30                   JUNCTION      0.00    15.19     0  01:20           0       0.287       0.000
  31                   JUNCTION      0.00    15.16     0  01:22           0       0.286       0.000
  32                   JUNCTION      0.00    15.10     0  01:23           0       0.286       0.000
  33                   JUNCTION      0.00    15.00     0  01:24           0       0.286       0.000
  34                   JUNCTION      0.00    14.96     0  01:26           0       0.285       0.000
  35                   JUNCTION      0.00    14.95     0  01:26           0       0.285       0.000
  36                   JUNCTION      0.00    14.83     0  01:27           0       0.285       0.000
  37                   JUNCTION      0.00    14.70     0  01:31           0       0.285       0.000
  38                   JUNCTION      0.00    14.63     0  01:33           0       0.285       0.000
  39                   JUNCTION      0.00    14.01     0  01:39           0       0.287       0.000
  40                   JUNCTION      0.00    13.82     0  01:42           0       0.287       0.000
  41                   JUNCTION      0.00     7.84     0  01:34           0       0.192       0.000
  42                   JUNCTION      0.00     7.63     0  01:38           0       0.191       0.000
  43                   JUNCTION      0.00     7.57     0  01:42           0        0.19       0.000
  44                   JUNCTION      0.00     7.53     0  01:45           0       0.189       0.000
  46                   JUNCTION      0.00     7.19     0  01:55           0       0.189       0.000
  47                   JUNCTION      0.00    19.48     0  01:53           0       0.476       0.000
  49                   JUNCTION      0.00     7.91     0  01:30           0       0.193       0.000
  51                   JUNCTION      0.00     7.90     0  01:30           0       0.193       0.000
  50                   JUNCTION      0.00    19.48     0  01:53           0       0.475       0.000
  
  
  *********************
  Node Flooding Summary
  *********************
  
  No nodes were flooded.
  
  
  ********************
  Link Flow Summary
  ********************
  
  -----------------------------------------------------------------------------
                                 Maximum  Time of Max   Maximum    Max/    Max/
                                  |Flow|   Occurrence   |Veloc|    Full    Full
  Link                 Type          CFS  days hr:min    ft/sec    Flow   Depth
  -----------------------------------------------------------------------------
  2                    CONDUIT      9.46     0  01:11      6.53    0.22    0.32
  3                    CONDUIT      9.38     0  01:14      3.41    0.56    0.53
  4                    CONDUIT      9.37     0  01:15      7.09    0.19    0.30
  5                    CONDUIT      7.91     0  01:30      3.49    0.48    0.48
  8                    CONDUIT     15.55     0  01:10     10.18    0.48    0.49
  9                    CONDUIT     15.54     0  01:11      9.05    0.57    0.54
  10                   CONDUIT     15.57     0  01:13      8.31    0.65    0.59
  11                   CONDUIT     15.48     0  01:15      6.17    0.66    0.59
  12                   CONDUIT     15.43     0  01:16      8.10    0.45    0.47
  13                   CONDUIT     15.42     0  01:16     11.57    0.27    0.36
  14                   CONDUIT     15.38     0  01:17      7.08    0.53    0.52
  15                   CONDUIT     15.22     0  01:20      7.79    0.47    0.48
  16                   CONDUIT     15.19     0  01:20      8.45    0.41    0.45
  17                   CONDUIT     15.16     0  01:22      7.32    0.50    0.50
  18                   CONDUIT     15.10     0  01:23      7.36    0.50    0.50
  19                   CONDUIT     15.00     0  01:24      7.21    0.51    0.50
  20                   CONDUIT     14.96     0  01:26      6.99    0.52    0.51
  21                   CONDUIT     14.95     0  01:26     10.20    0.31    0.38
  22                   CONDUIT     14.83     0  01:27      7.45    0.48    0.49
  23                   CONDUIT     14.70     0  01:31      6.82    0.54    0.52
  24                   CONDUIT     14.63     0  01:33      7.77    0.44    0.47
  25                   CONDUIT     14.01     0  01:39      6.71    0.53    0.51
  26                   CONDUIT     13.82     0  01:42      6.99    0.48    0.49
  27                   CONDUIT     13.22     0  01:48      7.39    0.30    0.38
  28                   CONDUIT      7.84     0  01:34      5.69    0.21    0.31
  29                   CONDUIT      7.63     0  01:38      4.23    0.16    0.27
  30                   CONDUIT      7.57     0  01:42      4.20    0.15    0.26
  31                   CONDUIT      7.53     0  01:45      4.14    0.10    0.21
  34                   CONDUIT      7.16     0  01:57      2.89    0.08    0.19
  35                   CONDUIT      7.90     0  01:30      3.35    0.43    0.46
  37                   CONDUIT      7.19     0  01:55      2.75    0.17    0.28
  38                   CONDUIT     19.48     0  01:53      8.10    0.08    0.19
  
  
  *************************
  Conduit Surcharge Summary
  *************************
  
  No conduits were surcharged.
  
  
  ***************************
  Link Pollutant Load Summary
  ***************************
  
  ----------------------------------
                                 TSS
  Link                           lbs
  ----------------------------------
  2                            0.015
  3                            0.015
  4                            0.015
  5                            0.015
  8                            0.023
  9                            0.023
  10                           0.023
  11                           0.023
  12                           0.023
  13                           0.023
  14                           0.023
  15                           0.023
  16                           0.022
  17                           0.022
  18                           0.022
  19                           0.022
  20                           0.022
  21                           0.022
  22                           0.022
  23                           0.022
  24                           0.022
  25                           0.022
  26                           0.022
  27                           0.022
  28                           0.015
  29                           0.014
  30                           0.014
  31                           0.014
  34                           0.014
  35                           0.015
  37                           0.014
  38                           0.036
  

  Analysis begun on:  Tue Jun 23 20:54:20 2026
  Analysis ended on:  Tue Jun 23 20:54:20 2026
  Total elapsed time: < 1 sec