
  EPA STORM WATER MANAGEMENT MODEL - VERSION 5.2 (Build 5.2.4)
  ------------------------------------------------------------

  Scenario Run :  NRCSDMENSIONLESS 
  
  *************
  Element Count
  *************
  Number of rain gages ...... 2
  Number of subcatchments ... 40
  Number of nodes ........... 6
  Number of links ........... 5
  Number of pollutants ...... 0
  Number of land uses ....... 0
  
  
  ****************
  Raingage Summary
  ****************
                                                      Data       Recording
  Name                 Data Source                    Type       Interval 
  ------------------------------------------------------------------------
  GAGE98               25YEAR                         INTENSITY   60 min.
  GAGE500YEAR          500YEAR                        INTENSITY   60 min.
  
  
  ********************
  Subcatchment Summary
  ********************
  Name                       Area     Width   %Imperv    %Slope Rain Gage            Outlet              
  -----------------------------------------------------------------------------------------------------------
  45                         1.07    500.00      0.00    1.0000 GAGE98               C                   
  47.5                       0.50    500.00      0.00    1.0000 GAGE98               B                   
  50                         0.69    500.00      0.00    1.0000 GAGE98               B                   
  52.5                       1.41    500.00      0.00    1.0000 GAGE98               B                   
  55                         0.58    500.00      0.00    1.0000 GAGE98               C                   
  57.5                       0.79    500.00      0.00    1.0000 GAGE98               C                   
  60                         1.33    500.00      0.00    1.0000 GAGE98               C                   
  62.5                       1.20    500.00      0.00    1.0000 GAGE98               B                   
  65                         1.18    500.00      0.00    1.0000 GAGE98               B                   
  67.5                       0.39    500.00      0.00    1.0000 GAGE98               B                   
  70                         0.31    500.00      0.00    1.0000 GAGE98               B                   
  72.5                       0.96    500.00      0.00    1.0000 GAGE98               B                   
  75                         1.29    500.00      0.00    1.0000 GAGE98               B                   
  77.5                       3.22    500.00      0.00    1.0000 GAGE98               B                   
  80                         2.30    500.00      0.00    1.0000 GAGE98               B                   
  81                        11.68    600.00      0.00    1.0000 GAGE98               A                   
  82                        11.68    600.00      0.00    1.0000 GAGE98               A                   
  82.5                       1.90    500.00      0.00    1.0000 GAGE98               B                   
  83                        11.68    600.00      0.00    1.0000 GAGE98               A                   
  84                        11.68    600.00      0.00    1.0000 GAGE98               A                   
  85                         1.08    500.00      0.00    1.0000 GAGE98               B                   
  86                        11.68    600.00      0.00    1.0000 GAGE98               A                   
  86.5                       3.62    600.00      0.00    1.0000 GAGE98               C                   
  87                        11.68    600.00      0.00    1.0000 GAGE98               A                   
  87.5                       2.43    500.00      0.00    1.0000 GAGE98               B                   
  88                        11.68    600.00      0.00    1.0000 GAGE98               A                   
  89                         7.27    500.00      0.00    1.0000 GAGE98               B                   
  90                         7.27    500.00      0.00    1.0000 GAGE98               B                   
  91                        11.68    600.00      0.00    1.0000 GAGE98               A                   
  92                        11.68    600.00      0.00    1.0000 GAGE98               A                   
  92.5                       6.54    500.00      0.00    1.0000 GAGE98               B                   
  93                        11.68    600.00      0.00    1.0000 GAGE98               A                   
  94                        11.68    600.00      0.00    1.0000 GAGE98               A                   
  95                         8.13    200.00      0.00    1.0000 GAGE98               G                   
  95.5                       8.13    200.00      0.00    1.0000 GAGE98               G                   
  96                        11.68    600.00      0.00    1.0000 GAGE98               A                   
  96.5                       3.62    600.00      0.00    1.0000 GAGE98               C                   
  97                        11.68    600.00      0.00    1.0000 GAGE98               A                   
  98                        11.68    600.00      0.00    1.0000 GAGE98               A                   
  99                        11.68    600.00      0.00    1.0000 GAGE98               A                   
  
  
  ************
  Node Summary
  ************
                                           Invert      Max.    Ponded    External
  Name                 Type                 Elev.     Depth      Area    Inflow  
  -------------------------------------------------------------------------------
  A                    JUNCTION              1.10     20.00       0.0    Yes
  B                    JUNCTION              9.00     20.00       0.0    Yes
  C                    JUNCTION              8.00      6.00       0.0    Yes
  E                    JUNCTION              0.50      4.00       0.0
  G                    JUNCTION              3.00      5.00       0.0    Yes
  OUTLET               OUTFALL               0.00      0.30       0.0
  
  
  ************
  Link Summary
  ************
  Name             From Node        To Node          Type            Length    %Slope Roughness
  ---------------------------------------------------------------------------------------------
  A                A                E                CONDUIT          220.0    0.2727    0.0150
  B                G                A                CONDUIT          182.8    1.0396    0.0150
  C                B                C                CONDUIT          505.0    0.1980    0.0240
  D                C                G                CONDUIT          263.3    1.8996    0.0240
  F                E                OUTLET           CONDUIT          255.2    0.1959    0.0150
  
  
  *********************
  Cross Section Summary
  *********************
                                        Full     Full     Hyd.     Max.   No. of     Full
  Conduit          Shape               Depth     Area     Rad.    Width  Barrels     Flow
  ---------------------------------------------------------------------------------------
  A                CIRCULAR             0.30     0.07     0.07     0.30       98     0.07
  B                CIRCULAR             0.30     0.07     0.07     0.30       98     0.13
  C                CIRCULAR             0.30     0.07     0.07     0.30       98     0.03
  D                CIRCULAR             0.30     0.07     0.07     0.30       98     0.11
  F                CIRCULAR             0.30     0.07     0.07     0.30       98     0.06
  
  
  *************
  Shape Summary
  *************

  Shape CUNETTE
  Area:  
              0.0021     0.0070     0.0134     0.0209     0.0293 
              0.0384     0.0483     0.0588     0.0699     0.0814 
              0.0934     0.1058     0.1185     0.1315     0.1449 
              0.1653     0.1930     0.2210     0.2494     0.2781 
              0.3071     0.3362     0.3654     0.3948     0.4242 
              0.4536     0.4829     0.5122     0.5413     0.5703 
              0.5989     0.6273     0.6554     0.6830     0.7102 
              0.7369     0.7630     0.7885     0.8132     0.8372 
              0.8603     0.8823     0.9033     0.9231     0.9415 
              0.9583     0.9733     0.9860     0.9959     1.0000 
  Hrad:  
              0.0455     0.1052     0.1583     0.2070     0.2522 
              0.2943     0.3337     0.3707     0.4056     0.4386 
              0.4697     0.4992     0.5272     0.5536     0.5787 
              0.4151     0.4690     0.5207     0.5703     0.6179 
              0.6636     0.7073     0.7492     0.7893     0.8275 
              0.8639     0.8985     0.9314     0.9623     0.9915 
              1.0188     1.0443     1.0678     1.0895     1.1091 
              1.1267     1.1422     1.1555     1.1665     1.1752 
              1.1813     1.1847     1.1852     1.1825     1.1761 
              1.1654     1.1495     1.1265     1.0918     1.0000 
  Width: 
              0.1400     0.1960     0.2375     0.2713     0.3000 
              0.3250     0.3470     0.3666     0.3842     0.4000 
              0.4143     0.4271     0.4386     0.4490     0.4582 
              0.9330     0.9474     0.9600     0.9708     0.9798 
              0.9871     0.9928     0.9968     0.9992     1.0000 
              0.9992     0.9968     0.9928     0.9871     0.9798 
              0.9708     0.9600     0.9474     0.9330     0.9165 
              0.8980     0.8773     0.8542     0.8285     0.8000 
              0.7684     0.7332     0.6940     0.6499     0.6000 
              0.5426     0.4750     0.3919     0.2800     0.0000 
  
  
  ****************
  Analysis Options
  ****************
  Flow Units ............... CFS
  Process Models:
    Rainfall/Runoff ........ YES
    RDII ................... YES
    Snowmelt ............... NO
    Groundwater ............ NO
    Flow Routing ........... YES
    Ponding Allowed ........ NO
    Water Quality .......... NO
  Infiltration Method ...... CURVE_NUMBER
  Flow Routing Method ...... DYNWAVE
  Surcharge Method ......... EXTRAN
  Starting Date ............ 07/15/1977 00:00:00
  Ending Date .............. 07/16/1977 06:00:00
  Antecedent Dry Days ...... 7.0
  Report Time Step ......... 00:01:00
  Wet Time Step ............ 00:05:00
  Dry Time Step ............ 00:05:00
  Routing Time Step ........ 10.00 sec
  Variable Time Step ....... YES
  Maximum Trials ........... 4
  Number of Threads ........ 1
  Head Tolerance ........... 0.005000 ft
  
  
  **************************        Volume         Depth
  Runoff Quantity Continuity     acre-feet        inches
  **************************     ---------       -------
  Total Precipitation ......       100.982         5.000
  Evaporation Loss .........         0.000         0.000
  Infiltration Loss ........        37.786         1.871
  Surface Runoff ...........        62.737         3.106
  Final Storage ............         0.923         0.046
  Continuity Error (%) .....        -0.459
  
  
  **************************        Volume        Volume
  Flow Routing Continuity        acre-feet      10^6 gal
  **************************     ---------     ---------
  Dry Weather Inflow .......         0.310         0.101
  Wet Weather Inflow .......        62.736        20.444
  Groundwater Inflow .......         0.000         0.000
  RDII Inflow ..............         0.000         0.000
  External Inflow ..........         0.000         0.000
  External Outflow .........         7.267         2.368
  Flooding Loss ............        55.694        18.149
  Evaporation Loss .........         0.000         0.000
  Exfiltration Loss ........         0.088         0.029
  Initial Stored Volume ....         0.000         0.000
  Final Stored Volume ......         0.011         0.004
  Continuity Error (%) .....        -0.023
  
  
  ***************************
  Time-Step Critical Elements
  ***************************
  None
  
  
  ********************************
  Highest Flow Instability Indexes
  ********************************
  All links are stable.
  
  
  *********************************
  Most Frequent Nonconverging Nodes
  *********************************
  Node OUTLET (3.42%)
  Node A (1.58%)
  Node B (1.42%)
  Node G (1.16%)
  Node C (1.05%)
  
  
  *************************
  Routing Time Step Summary
  *************************
  Minimum Time Step           :     0.60 sec
  Average Time Step           :    10.00 sec
  Maximum Time Step           :    10.00 sec
  % of Time in Steady State   :     0.00
  Average Iterations per Step :     2.11
  % of Steps Not Converging   :     3.42
  Time Step Frequencies       :
     10.000 -  1.585 sec      :    99.98 %
      1.585 -  0.251 sec      :     0.02 %
      0.251 -  0.040 sec      :     0.00 %
      0.040 -  0.006 sec      :     0.00 %
      0.006 -  0.001 sec      :     0.00 %
  
  
  ***************************
  Subcatchment Runoff Summary
  ***************************
  
  ------------------------------------------------------------------------------------------------------------------------------
                            Total      Total      Total      Total     Imperv       Perv      Total       Total     Peak  Runoff
                           Precip      Runon       Evap      Infil     Runoff     Runoff     Runoff      Runoff   Runoff   Coeff
  Subcatchment                 in         in         in         in         in         in         in    10^6 gal      CFS
  ------------------------------------------------------------------------------------------------------------------------------
  45                         5.00       0.00       0.00       5.00       0.00       0.00       0.00        0.00     0.00   0.000
  47.5                       5.00       0.00       0.00       5.00       0.00       0.00       0.00        0.00     0.00   0.000
  50                         5.00       0.00       0.00       5.00       0.00       0.00       0.00        0.00     0.00   0.000
  52.5                       5.00       0.00       0.00       5.00       0.00       0.00       0.00        0.00     0.00   0.000
  55                         5.00       0.00       0.00       4.74       0.00       0.49       0.49        0.01     1.76   0.098
  57.5                       5.00       0.00       0.00       4.46       0.00       0.76       0.76        0.02     2.53   0.151
  60                         5.00       0.00       0.00       4.19       0.00       1.03       1.03        0.04     4.44   0.206
  62.5                       5.00       0.00       0.00       3.89       0.00       1.08       1.08        0.04     4.19   0.216
  65                         5.00       0.00       0.00       3.64       0.00       1.38       1.38        0.04     4.30   0.277
  67.5                       5.00       0.00       0.00       3.40       0.00       1.69       1.69        0.02     1.46   0.339
  70                         5.00       0.00       0.00       3.14       0.00       2.01       2.01        0.02     1.21   0.402
  72.5                       5.00       0.00       0.00       2.89       0.00       2.10       2.10        0.06     3.91   0.421
  75                         5.00       0.00       0.00       2.63       0.00       2.44       2.44        0.09     5.39   0.489
  77.5                       5.00       0.00       0.00       2.37       0.00       2.79       2.79        0.24    13.90   0.557
  80                         5.00       0.00       0.00       2.16       0.00       2.92       2.92        0.18    10.21   0.583
  81                         5.00       0.00       0.00       4.98       0.00       0.02       0.02        0.01     0.96   0.004
  82                         5.00       0.00       0.00       4.98       0.00       0.02       0.02        0.01     0.96   0.004
  82.5                       5.00       0.00       0.00       1.88       0.00       3.28       3.28        0.17     8.65   0.655
  83                         5.00       0.00       0.00       4.98       0.00       0.02       0.02        0.01     0.96   0.004
  84                         5.00       0.00       0.00       4.98       0.00       0.02       0.02        0.01     0.96   0.004
  85                         5.00       0.00       0.00       1.61       0.00       3.43       3.43        0.10     5.07   0.686
  86                         5.00       0.00       0.00       1.63       0.00       3.32       3.32        1.05    45.52   0.664
  86.5                       5.00       0.00       0.00       4.96       0.00       0.05       0.05        0.00     0.75   0.010
  87                         5.00       0.00       0.00       1.49       0.00       3.45       3.45        1.10    46.32   0.691
  87.5                       5.00       0.00       0.00       1.35       0.00       3.79       3.79        0.25    11.59   0.759
  88                         5.00       0.00       0.00       1.36       0.00       3.58       3.58        1.14    47.10   0.717
  89                         5.00       0.00       0.00       1.24       0.00       3.72       3.72        0.73    31.76   0.743
  90                         5.00       0.00       0.00       1.09       0.00       3.98       3.98        0.79    35.37   0.795
  91                         5.00       0.00       0.00       0.99       0.00       3.96       3.96        1.26    49.35   0.792
  92                         5.00       0.00       0.00       0.87       0.00       4.08       4.08        1.29    50.06   0.816
  92.5                       5.00       0.00       0.00       0.81       0.00       4.16       4.16        0.74    32.29   0.832
  93                         5.00       0.00       0.00       0.75       0.00       4.20       4.20        1.33    50.75   0.839
  94                         5.00       0.00       0.00       0.64       0.00       4.31       4.31        1.37    51.40   0.862
  95                         5.00       0.00       0.00       0.53       0.00       4.40       4.40        0.97    28.52   0.880
  95.5                       5.00       0.00       0.00       0.47       0.00       4.37       4.37        0.97    40.67   0.875
  96                         5.00       0.00       0.00       0.42       0.00       4.53       4.53        1.44    52.62   0.906
  96.5                       5.00       0.00       0.00       0.36       0.00       4.66       4.66        0.46    18.15   0.932
  97                         5.00       0.00       0.00       0.31       0.00       4.64       4.64        1.47    53.16   0.928
  98                         5.00       0.00       0.00       0.20       0.00       4.80       4.80        1.52    58.77   0.961
  99                         5.00       0.00       0.00       0.10       0.00       4.85       4.85        1.54    54.08   0.970
  
  
  ******************
  Node Depth Summary
  ******************
  
  ---------------------------------------------------------------------------------
                                 Average  Maximum  Maximum  Time of Max    Reported
                                   Depth    Depth      HGL   Occurrence   Max Depth
  Node                 Type         Feet     Feet     Feet  days hr:min        Feet
  ---------------------------------------------------------------------------------
  A                    JUNCTION     1.80    20.00    21.10     0  02:07       20.00
  B                    JUNCTION     0.90    20.00    29.00     0  02:07       20.00
  C                    JUNCTION     0.30     6.00    14.00     0  02:07        6.00
  E                    JUNCTION     0.59     4.00     4.50     0  02:04        4.00
  G                    JUNCTION     0.62     5.00     8.00     0  02:04        5.00
  OUTLET               OUTFALL      0.07     0.23     0.23     0  02:07        0.23
  
  
  *******************
  Node Inflow Summary
  *******************
  
  -------------------------------------------------------------------------------------------------
                                  Maximum  Maximum                  Lateral       Total        Flow
                                  Lateral    Total  Time of Max      Inflow      Inflow     Balance
                                   Inflow   Inflow   Occurrence      Volume      Volume       Error
  Node                 Type           CFS      CFS  days hr:min    10^6 gal    10^6 gal     Percent
  -------------------------------------------------------------------------------------------------
  A                    JUNCTION    562.97   562.97     0  03:00        14.5        14.8      -0.003
  B                    JUNCTION    169.34   169.34     0  03:00        3.48        3.48       0.023
  C                    JUNCTION     27.65    40.80     0  03:00       0.549        1.15      -0.065
  E                    JUNCTION      0.00    33.53     0  02:09           0        3.33       0.003
  G                    JUNCTION     69.22   113.41     0  03:00        1.96         4.5      -0.021
  OUTLET               OUTFALL       0.00    16.04     0  04:03           0        2.37       0.000
  
  
  **********************
  Node Surcharge Summary
  **********************
  
  Surcharging occurs when water rises above the top of the highest conduit.
  ---------------------------------------------------------------------
                                               Max. Height   Min. Depth
                                   Hours       Above Crown    Below Rim
  Node                 Type      Surcharged           Feet         Feet
  ---------------------------------------------------------------------
  A                    JUNCTION        4.94         19.700        0.000
  B                    JUNCTION        1.73         19.700        0.000
  C                    JUNCTION        1.94          5.700        0.000
  E                    JUNCTION        5.18          3.700        0.000
  G                    JUNCTION        3.99          4.700        0.000
  
  
  *********************
  Node Flooding Summary
  *********************
  
  Flooding refers to all water that overflows a node, whether it ponds or not.
  --------------------------------------------------------------------------
                                                             Total   Maximum
                                 Maximum   Time of Max       Flood    Ponded
                        Hours       Rate    Occurrence      Volume     Depth
  Node                 Flooded       CFS   days hr:min    10^6 gal      Feet
  --------------------------------------------------------------------------
  A                       1.72    496.28      0  03:00       9.515     0.000
  B                       1.12    156.13      0  03:00       2.877     0.000
  C                       1.17     29.27      0  03:00       0.552     0.000
  E                       2.65     17.46      0  02:09       0.949     0.000
  G                       3.23    113.36      0  03:00       4.254     0.000
  
  
  ***********************
  Outfall Loading Summary
  ***********************
  
  -----------------------------------------------------------
                         Flow       Avg       Max       Total
                         Freq      Flow      Flow      Volume
  Outfall Node           Pcnt       CFS       CFS    10^6 gal
  -----------------------------------------------------------
  OUTLET                99.07      2.96     16.04       2.368
  -----------------------------------------------------------
  System                99.07      2.96     16.04       2.368
  
  
  ********************
  Link Flow Summary
  ********************
  
  -----------------------------------------------------------------------------
                                 Maximum  Time of Max   Maximum    Max/    Max/
                                  |Flow|   Occurrence   |Veloc|    Full    Full
  Link                 Type          CFS  days hr:min    ft/sec    Flow   Depth
  -----------------------------------------------------------------------------
  A                    CONDUIT     33.53     0  02:09      4.84    5.26    1.00
  B                    CONDUIT     32.67     0  02:09      4.72    2.63    1.00
  C                    CONDUIT     13.15     0  02:09      1.90    3.87    1.00
  D                    CONDUIT     11.52     0  02:09      1.66    1.10    1.00
  F                    CONDUIT     16.04     0  04:03      2.46    2.97    0.89
  
  
  ***************************
  Flow Classification Summary
  ***************************
  
  -------------------------------------------------------------------------------------
                      Adjusted    ---------- Fraction of Time in Flow Class ---------- 
                       /Actual         Up    Down  Sub   Sup   Up    Down  Norm  Inlet 
  Conduit               Length    Dry  Dry   Dry   Crit  Crit  Crit  Crit  Ltd   Ctrl  
  -------------------------------------------------------------------------------------
  A                       1.00   0.00  0.00  0.00  1.00  0.00  0.00  0.00  0.81  0.00
  B                       1.00   0.00  0.00  0.00  1.00  0.00  0.00  0.00  0.86  0.00
  C                       1.00   0.00  0.00  0.00  1.00  0.00  0.00  0.00  0.04  0.00
  D                       1.00   0.00  0.00  0.00  1.00  0.00  0.00  0.00  0.89  0.00
  F                       1.00   0.00  0.00  0.00  1.00  0.00  0.00  0.00  0.00  0.00
  
  
  *************************
  Conduit Surcharge Summary
  *************************
  
  ----------------------------------------------------------------------------
                                                           Hours        Hours 
                         --------- Hours Full --------   Above Full   Capacity
  Conduit                Both Ends  Upstream  Dnstream   Normal Flow   Limited
  ----------------------------------------------------------------------------
  A                           4.91      4.94      5.18      4.70         4.67
  B                           3.99      3.99      4.94      2.27         0.01
  C                           1.73      1.73      1.94      1.64         1.64
  D                           1.94      1.94      3.99      1.20         1.20
  F                           0.01      5.18      0.01      5.15         0.01
  

  Analysis begun on:  Tue Jun 23 20:54:20 2026
  Analysis ended on:  Tue Jun 23 20:54:20 2026
  Total elapsed time: < 1 sec