
  EPA STORM WATER MANAGEMENT MODEL - VERSION 5.2 (Build 5.2.4)
  ------------------------------------------------------------

  Scenario Run :  BASE 
  WARNING 01: wet weather time step reduced to recording interval for Rain Gage HUFF_1ST_QUARTER
  
  ****************
  Analysis Options
  ****************
  Flow Units ............... LPS
  Process Models:
    Rainfall/Runoff ........ YES
    RDII ................... NO
    Snowmelt ............... NO
    Groundwater ............ NO
    Flow Routing ........... NO
    Water Quality .......... NO
  Infiltration Method ...... HORTON
  Surcharge Method ......... EXTRAN
  Starting Date ............ 01/01/2020 00:00:00
  Ending Date .............. 01/02/2020 12:00:00
  Antecedent Dry Days ...... 5.0
  Report Time Step ......... 00:01:00
  Wet Time Step ............ 01:12:00
  Dry Time Step ............ 01:15:00
  
  
  **************************        Volume         Depth
  Runoff Quantity Continuity     hectare-m            mm
  **************************     ---------       -------
  Total Precipitation ......         0.400        50.000
  Evaporation Loss .........         0.000         0.000
  Infiltration Loss ........         0.272        33.976
  Surface Runoff ...........         0.131        16.419
  Final Storage ............         0.000         0.000
  Continuity Error (%) .....        -0.790
  
  
  **************************        Volume        Volume
  Flow Routing Continuity        hectare-m      10^6 ltr
  **************************     ---------     ---------
  Dry Weather Inflow .......         0.000         0.000
  Wet Weather Inflow .......         0.131         1.314
  Groundwater Inflow .......         0.000         0.000
  RDII Inflow ..............         0.000         0.000
  External Inflow ..........         0.000         0.000
  External Outflow .........         0.131         1.314
  Flooding Loss ............         0.000         0.000
  Evaporation Loss .........         0.000         0.000
  Exfiltration Loss ........         0.000         0.000
  Initial Stored Volume ....         0.000         0.000
  Final Stored Volume ......         0.000         0.000
  Continuity Error (%) .....         0.000
  
  
  ***************************
  Subcatchment Runoff Summary
  ***************************
  
  ------------------------------------------------------------------------------------------------------------------------------
                            Total      Total      Total      Total     Imperv       Perv      Total       Total     Peak  Runoff
                           Precip      Runon       Evap      Infil     Runoff     Runoff     Runoff      Runoff   Runoff   Coeff
  Subcatchment                 mm         mm         mm         mm         mm         mm         mm    10^6 ltr      LPS
  ------------------------------------------------------------------------------------------------------------------------------
  LOWHORTON_1STQUARTERHUFF      50.00       0.00       0.00      20.39       0.00      29.86      29.86        0.30    16.55   0.597
  LOWHORTON_2NDQUARTERHUFF      50.00       0.00       0.00      19.83       0.00      30.35      30.35        0.30    10.51   0.607
  LOWHORTON_3RDQUARTERHUFF      50.00       0.00       0.00      21.42       0.00      28.83      28.83        0.29    15.16   0.577
  LOWHORTON_4THQUARTERHUFF      50.00       0.00       0.00      21.27       0.00      29.01      29.01        0.29    19.77   0.580
  HIGHHORTON_1STQUARTERHUFF      50.00       0.00       0.00      46.22       0.00       4.14       4.14        0.04     5.39   0.083
  HIGHHORTON_2NDQUARTERHUFF      50.00       0.00       0.00      50.00       0.00       0.00       0.00        0.00     0.00   0.000
  HIGHHORTON_3RDQUARTERHUFF      50.00       0.00       0.00      48.17       0.00       2.51       2.51        0.03     3.95   0.050
  HIGHHORTON_4THQUARTERHUFF      50.00       0.00       0.00      44.52       0.00       6.64       6.64        0.07     8.41   0.133
  

  Analysis begun on:  Tue Jun 23 20:54:20 2026
  Analysis ended on:  Tue Jun 23 20:54:20 2026
  Total elapsed time: < 1 sec