
  EPA STORM WATER MANAGEMENT MODEL - VERSION 5.2 (Build 5.2.4)
  ------------------------------------------------------------

  
  ERROR 205: invalid keyword  at line 946 of input file:
  [Innovyze_Supplementary_Outlet]


  Analysis begun on:  Tue Jun 23 20:54:30 2026
  Analysis ended on:  Tue Jun 23 20:54:30 2026
  Total elapsed time: < 1 sec