
  EPA STORM WATER MANAGEMENT MODEL - VERSION 5.2 (Build 5.2.4)
  ------------------------------------------------------------

  
  *************
  Element Count
  *************
  Number of rain gages ...... 1
  Number of subcatchments ... 29
  Number of nodes ........... 38
  Number of links ........... 42
  Number of pollutants ...... 0
  Number of land uses ....... 0
  
  
  ****************
  Raingage Summary
  ****************
                                                      Data       Recording
  Name                 Data Source                    Type       Interval 
  ------------------------------------------------------------------------
  GAGE1                KALIBRASIMODEL                 VOLUME      10 min.
  
  
  ********************
  Subcatchment Summary
  ********************
  Name                       Area     Width   %Imperv    %Slope Rain Gage            Outlet              
  -----------------------------------------------------------------------------------------------------------
  S1                         5.49    137.00     47.48    0.0400 GAGE1                J2                  
  S2                         9.41    275.00     49.68    0.0400 GAGE1                J3                  
  S3                         0.52     83.30     49.55    0.0200 GAGE1                J4                  
  S4                        10.27    476.00     35.80    0.0500 GAGE1                J12                 
  S5                         1.40    170.00     41.00    0.0500 GAGE1                J9                  
  S6                         1.20    102.00     39.16    0.0400 GAGE1                J8                  
  S7                        38.74    732.00     31.40    0.0500 GAGE1                J33                 
  S8                         6.66    619.00      4.95    0.0700 GAGE1                J34                 
  S9                        11.00    257.00     28.00    0.0400 GAGE1                J7                  
  S10                        4.90    276.00     29.12    0.0500 GAGE1                J13                 
  S11                        9.67    597.00     15.71    0.0600 GAGE1                J35                 
  S12                       11.00    842.00     18.00    0.0600 GAGE1                J36                 
  S13                        2.75    217.00     17.00    0.0700 GAGE1                J31                 
  S14                        3.43    256.00     15.25    0.0500 GAGE1                J30                 
  S15                       10.25    625.00     32.00    0.0200 GAGE1                J6                  
  S16                       12.83    390.00     26.20    0.0400 GAGE1                J24                 
  S17                        2.60    230.00     37.50    0.0400 GAGE1                J5                  
  S18                       10.14    337.00     35.00    0.0400 GAGE1                J15                 
  S19                        1.33    104.00     12.50    0.0400 GAGE1                J22                 
  S20                        1.07    183.00     60.54    0.0300 GAGE1                J14                 
  S21                        2.41    174.00     31.10    0.0300 GAGE1                J16                 
  S22                        1.75    320.00     31.99    0.0500 GAGE1                J19                 
  S23                      182.28   1123.50     29.48    0.0800 GAGE1                J17                 
  S25                       27.27    885.00     39.62    0.0700 GAGE1                J1                  
  S26                      162.00   1091.00     35.00    0.0270 GAGE1                OUT2                
  S27                        6.65    268.00     11.72    0.0600 GAGE1                J29                 
  S28                        3.80    250.00      5.54    0.0500 GAGE1                J32                 
  S29                       14.14    391.00     27.00    0.0400 GAGE1                J26                 
  S30                       10.20    347.00      3.00    0.0600 GAGE1                J28                 
  
  
  ************
  Node Summary
  ************
                                           Invert      Max.    Ponded    External
  Name                 Type                 Elev.     Depth      Area    Inflow  
  -------------------------------------------------------------------------------
  J1                   JUNCTION             11.50      0.70       0.0
  J2                   JUNCTION             12.50      0.70       0.0
  J3                   JUNCTION             12.70      0.70       0.0
  J4                   JUNCTION             13.40      0.70       0.0
  J5                   JUNCTION             14.30      1.00       0.0
  J6                   JUNCTION             15.50      0.70       0.0
  J7                   JUNCTION             23.07      1.00       0.0
  J8                   JUNCTION             16.57      1.00       0.0
  J9                   JUNCTION             15.45      1.00       0.0
  J10                  JUNCTION             14.76      1.00       0.0
  J11                  JUNCTION             14.20      0.70       0.0
  J12                  JUNCTION             15.76      1.00       0.0
  J13                  JUNCTION             17.46      1.00       0.0
  J14                  JUNCTION             17.86      1.00       0.0
  J15                  JUNCTION             21.55      1.00       0.0
  J16                  JUNCTION             20.25      1.00       0.0
  J17                  JUNCTION             22.86      1.00       0.0
  J18                  JUNCTION             22.56      1.00       0.0
  J19                  JUNCTION             23.90      1.40       0.0
  J20                  JUNCTION             24.60      1.40       0.0
  J21                  JUNCTION             27.75      1.00       0.0
  J22                  JUNCTION             25.65      0.70       0.0
  J23                  JUNCTION             26.25      0.70       0.0
  J24                  JUNCTION             26.55      0.70       0.0
  J25                  JUNCTION             29.57      1.00       0.0
  J26                  JUNCTION             39.87      0.60       0.0
  J27                  JUNCTION             31.65      1.00       0.0
  J28                  JUNCTION             35.25      0.60       0.0
  J29                  JUNCTION             32.56      1.00       0.0
  J30                  JUNCTION             44.06      0.80       0.0
  J31                  JUNCTION             49.10      0.80       0.0
  J32                  JUNCTION             35.56      1.00       0.0
  J33                  JUNCTION             19.20      0.70       0.0
  J34                  JUNCTION             18.65      0.70       0.0
  J35                  JUNCTION             17.79      0.70       0.0
  J36                  JUNCTION             17.28      0.70       0.0
  OUT1                 OUTFALL              16.65      0.70       0.0
  OUT2                 OUTFALL              10.25      0.70       0.0
  
  
  ************
  Link Summary
  ************
  Name             From Node        To Node          Type            Length    %Slope Roughness
  ---------------------------------------------------------------------------------------------
  C1               J1               OUT2             CONDUIT          225.0    0.5556    0.0180
  C2               J2               J1               CONDUIT          445.0    0.2247    0.0125
  C3               J3               J2               CONDUIT          135.0    0.1481    0.0125
  C4               J4               J3               CONDUIT          126.0    0.5556    0.0125
  C5               J5               J4               CONDUIT           69.0    1.3045    0.0125
  C6               J6               J5               CONDUIT          252.0    0.4762    0.0125
  C7               J33              J34              CONDUIT          102.0    0.5392    0.0125
  C8               J34              J35              CONDUIT          150.0    0.5760    0.0125
  C9               J35              J36              CONDUIT          157.0    0.3223    0.0125
  C10              J36              OUT1             CONDUIT          258.0    0.2426    0.0125
  C11              J11              J4               CONDUIT           60.0    1.3335    0.0125
  C12              J10              J11              CONDUIT           60.0    0.9334    0.0200
  C13              J10              J5               CONDUIT          105.0    0.4381    0.0200
  C14              J9               J10              CONDUIT          152.0    0.4540    0.0125
  C15              J12              J10              CONDUIT          132.0    0.7561    0.0125
  C16              J8               J9               CONDUIT          100.0    1.1151    0.0125
  C17              J7               J8               CONDUIT          210.0    3.0972    0.0125
  C18              J8               J6               CONDUIT          127.0    0.8386    0.0125
  C19              J13              J8               CONDUIT          181.0    0.4939    0.0125
  C20              J13              J9               CONDUIT          205.0    0.9800    0.0125
  C21              J14              J13              CONDUIT           94.0    0.4319    0.0125
  C22              J15              J14              CONDUIT          203.0    1.8141    0.0125
  C23              J16              J14              CONDUIT           65.0    3.6717    0.0250
  C24              J18              J15              CONDUIT          102.0    0.9932    0.0125
  C25              J18              J16              CONDUIT          173.0    1.3354    0.0150
  C26              J17              J16              CONDUIT          172.0    1.5159    0.0125
  C27              J19              J18              CONDUIT           44.0    3.0423    0.0200
  C28              J20              J19              CONDUIT           58.0    1.2104    0.0125
  C29              J22              J19              CONDUIT          327.0    0.5358    0.0125
  C30              J21              J20              CONDUIT          337.0    0.9348    0.0200
  C31              J23              J22              CONDUIT           87.0    0.6897    0.0125
  C32              J24              J23              CONDUIT           95.0    0.3116    0.0125
  C33              J25              J21              CONDUIT          110.0    1.6584    0.0125
  C34              J26              J25              CONDUIT          603.0    1.7077    0.0125
  C35              J27              J25              CONDUIT          138.0    1.5074    0.0150
  C36              J28              J27              CONDUIT          334.0    1.0779    0.0125
  C37              J29              J27              CONDUIT          378.0    0.2407    0.0125
  C38              J30              J29              CONDUIT          285.0    4.0356    0.0125
  C39              J32              J29              CONDUIT          229.0    1.3106    0.0125
  C40              J31              J32              CONDUIT          225.0    6.0283    0.0125
  C41              J31              J30              CONDUIT          218.0    2.3162    0.0125
  C42              J20              J17              CONDUIT          152.0    1.1468    0.0250
  
  
  *********************
  Cross Section Summary
  *********************
                                        Full     Full     Hyd.     Max.   No. of     Full
  Conduit          Shape               Depth     Area     Rad.    Width  Barrels     Flow
  ---------------------------------------------------------------------------------------
  C1               RECT_OPEN            0.70     0.70     0.29     1.00        1     1.28
  C2               RECT_OPEN            0.70     0.70     0.29     1.00        1     1.17
  C3               RECT_OPEN            0.70     0.70     0.29     1.00        1     0.95
  C4               RECT_OPEN            0.70     0.70     0.29     1.00        1     1.84
  C5               RECT_OPEN            0.70     0.70     0.29     1.00        1     2.81
  C6               RECT_OPEN            0.70     0.70     0.29     1.00        1     1.70
  C7               RECT_OPEN            0.70     0.70     0.29     1.00        1     1.81
  C8               RECT_OPEN            0.70     0.70     0.29     1.00        1     1.87
  C9               RECT_OPEN            0.70     0.70     0.29     1.00        1     1.40
  C10              RECT_OPEN            0.70     0.70     0.29     1.00        1     1.21
  C11              RECT_OPEN            0.70     0.70     0.29     1.00        1     2.84
  C12              RECT_OPEN            0.60     0.30     0.18     0.50        1     0.46
  C13              RECT_OPEN            1.00     0.80     0.29     0.80        1     1.15
  C14              RECT_OPEN            1.00     0.80     0.29     0.80        1     1.87
  C15              RECT_OPEN            1.00     0.40     0.17     0.40        1     0.84
  C16              RECT_OPEN            1.00     0.80     0.29     0.80        1     2.93
  C17              RECT_OPEN            1.00     0.80     0.29     0.80        1     4.89
  C18              RECT_OPEN            0.55     0.24     0.15     0.43        1     0.50
  C19              RECT_OPEN            1.00     0.35     0.15     0.35        1     0.55
  C20              RECT_OPEN            1.00     0.75     0.27     0.75        1     2.50
  C21              RECT_OPEN            1.00     0.75     0.27     0.75        1     1.66
  C22              RECT_OPEN            1.00     0.88     0.31     0.88        1     4.30
  C23              RECT_OPEN            1.00     0.60     0.23     0.60        1     1.73
  C24              RECT_OPEN            0.60     0.36     0.20     0.60        1     0.98
  C25              RECT_OPEN            0.60     0.42     0.22     0.70        1     1.18
  C26              RECT_OPEN            1.00     0.60     0.23     0.60        1     2.22
  C27              RECT_OPEN            1.00     1.40     0.41     1.40        1     6.76
  C28              RECT_OPEN            1.40     0.98     0.28     0.70        1     3.69
  C29              RECT_OPEN            0.70     0.49     0.23     0.70        1     1.09
  C30              RECT_OPEN            1.00     0.70     0.26     0.70        1     1.38
  C31              RECT_OPEN            0.70     0.49     0.23     0.70        1     1.23
  C32              RECT_OPEN            0.70     0.49     0.23     0.70        1     0.83
  C33              RECT_OPEN            1.00     0.70     0.26     0.70        1     2.93
  C34              RECT_OPEN            0.60     0.42     0.22     0.70        1     1.61
  C35              RECT_OPEN            1.00     0.60     0.23     0.60        1     1.85
  C36              RECT_OPEN            0.60     0.42     0.22     0.70        1     1.28
  C37              RECT_OPEN            1.00     1.00     0.33     1.00        1     1.89
  C38              RECT_OPEN            0.80     0.68     0.28     0.85        1     4.65
  C39              RECT_OPEN            1.00     1.00     0.33     1.00        1     4.40
  C40              RECT_OPEN            0.80     0.68     0.28     0.85        1     5.68
  C41              RECT_OPEN            0.80     0.68     0.28     0.85        1     3.52
  C42              RECT_OPEN            1.00     1.00     0.33     1.00        1     2.06
  
  
  ****************
  Analysis Options
  ****************
  Flow Units ............... CMS
  Process Models:
    Rainfall/Runoff ........ YES
    RDII ................... NO
    Snowmelt ............... NO
    Groundwater ............ NO
    Flow Routing ........... YES
    Ponding Allowed ........ NO
    Water Quality .......... NO
  Infiltration Method ...... HORTON
  Flow Routing Method ...... DYNWAVE
  Surcharge Method ......... EXTRAN
  Starting Date ............ 02/18/2018 00:00:00
  Ending Date .............. 02/18/2018 23:55:00
  Antecedent Dry Days ...... 0.0
  Report Time Step ......... 00:10:00
  Wet Time Step ............ 00:05:00
  Dry Time Step ............ 01:00:00
  Routing Time Step ........ 10.00 sec
  Variable Time Step ....... YES
  Maximum Trials ........... 8
  Number of Threads ........ 1
  Head Tolerance ........... 0.001500 m
  
  
  **************************        Volume         Depth
  Runoff Quantity Continuity     hectare-m            mm
  **************************     ---------       -------
  Total Precipitation ......        16.673        29.500
  Evaporation Loss .........         0.000         0.000
  Infiltration Loss ........        11.129        19.692
  Surface Runoff ...........         4.995         8.838
  Final Storage ............         0.565         0.999
  Continuity Error (%) .....        -0.101
  
  
  **************************        Volume        Volume
  Flow Routing Continuity        hectare-m      10^6 ltr
  **************************     ---------     ---------
  Dry Weather Inflow .......         0.000         0.000
  Wet Weather Inflow .......         4.992        49.922
  Groundwater Inflow .......         0.000         0.000
  RDII Inflow ..............         0.000         0.000
  External Inflow ..........         0.000         0.000
  External Outflow .........         3.610        36.103
  Flooding Loss ............         1.365        13.654
  Evaporation Loss .........         0.000         0.000
  Exfiltration Loss ........         0.000         0.000
  Initial Stored Volume ....         0.000         0.000
  Final Stored Volume ......         0.018         0.182
  Continuity Error (%) .....        -0.033
  
  
  ***************************
  Time-Step Critical Elements
  ***************************
  Link C23 (10.46%)
  
  
  ********************************
  Highest Flow Instability Indexes
  ********************************
  All links are stable.
  
  
  *********************************
  Most Frequent Nonconverging Nodes
  *********************************
  Convergence obtained at all time steps.
  
  
  *************************
  Routing Time Step Summary
  *************************
  Minimum Time Step           :     2.91 sec
  Average Time Step           :     9.86 sec
  Maximum Time Step           :    10.00 sec
  % of Time in Steady State   :     0.00
  Average Iterations per Step :     2.00
  % of Steps Not Converging   :     0.00
  Time Step Frequencies       :
     10.000 -  5.493 sec      :    99.98 %
      5.493 -  3.017 sec      :     0.01 %
      3.017 -  1.657 sec      :     0.01 %
      1.657 -  0.910 sec      :     0.00 %
      0.910 -  0.500 sec      :     0.00 %
  
  
  ***************************
  Subcatchment Runoff Summary
  ***************************
  
  ------------------------------------------------------------------------------------------------------------------------------
                            Total      Total      Total      Total     Imperv       Perv      Total       Total     Peak  Runoff
                           Precip      Runon       Evap      Infil     Runoff     Runoff     Runoff      Runoff   Runoff   Coeff
  Subcatchment                 mm         mm         mm         mm         mm         mm         mm    10^6 ltr      CMS
  ------------------------------------------------------------------------------------------------------------------------------
  S1                        29.50       0.00       0.00      14.36      13.09       1.14      14.23        0.78     0.14   0.482
  S2                        29.50       0.00       0.00      13.84      13.77       1.01      14.77        1.39     0.25   0.501
  S3                        29.50       0.00       0.00      12.55      14.18       2.34      16.53        0.09     0.03   0.560
  S4                        29.50       0.00       0.00      17.44      10.18       1.50      11.68        1.20     0.30   0.396
  S5                        29.50       0.00       0.00      15.28      11.79       2.14      13.92        0.19     0.08   0.472
  S6                        29.50       0.00       0.00      15.76      11.20       2.20      13.40        0.16     0.05   0.454
  S7                        29.50       0.00       0.00      19.60       8.75       0.64       9.39        3.64     0.69   0.318
  S8                        29.50       0.00       0.00      25.17       1.43       2.89       4.32        0.29     0.09   0.146
  S9                        29.50       0.00       0.00      20.44       7.83       0.80       8.63        0.95     0.20   0.293
  S10                       29.50       0.00       0.00      18.99       8.33       1.93      10.25        0.50     0.15   0.348
  S11                       29.50       0.00       0.00      22.99       4.54       1.88       6.42        0.62     0.25   0.218
  S12                       29.50       0.00       0.00      21.57       5.20       2.63       7.83        0.86     0.34   0.265
  S13                       29.50       0.00       0.00      21.72       4.90       2.77       7.67        0.21     0.09   0.260
  S14                       29.50       0.00       0.00      23.02       4.41       1.99       6.40        0.22     0.09   0.217
  S15                       29.50       0.00       0.00      19.24       9.06       0.82       9.89        1.01     0.25   0.335
  S16                       29.50       0.00       0.00      20.81       7.39       0.96       8.35        1.07     0.25   0.283
  S17                       29.50       0.00       0.00      16.44      10.58       2.01      12.58        0.33     0.13   0.427
  S18                       29.50       0.00       0.00      18.43       9.84       0.75      10.58        1.07     0.24   0.359
  S19                       29.50       0.00       0.00      23.43       3.59       2.39       5.98        0.08     0.03   0.203
  S20                       29.50       0.00       0.00       9.44      17.30       2.21      19.52        0.21     0.07   0.662
  S21                       29.50       0.00       0.00      18.58       8.89       1.75      10.64        0.26     0.07   0.361
  S22                       29.50       0.00       0.00      16.94       9.26       3.14      12.41        0.22     0.10   0.421
  S23                       29.50       0.00       0.00      20.47       8.09       0.34       8.43       15.36     2.09   0.286
  S25                       29.50       0.00       0.00      16.41      11.20       1.40      12.60        3.44     0.78   0.427
  S26                       29.50       0.00       0.00      18.71       8.13       0.46       8.59       13.92     1.31   0.291
  S27                       29.50       0.00       0.00      24.36       3.38       1.69       5.07        0.34     0.12   0.172
  S28                       29.50       0.00       0.00      25.42       1.62       2.46       4.08        0.15     0.05   0.138
  S29                       29.50       0.00       0.00      20.71       7.62       0.83       8.44        1.19     0.26   0.286
  S30                       29.50       0.00       0.00      27.48       0.87       1.14       2.02        0.21     0.07   0.068
  
  
  ******************
  Node Depth Summary
  ******************
  
  ---------------------------------------------------------------------------------
                                 Average  Maximum  Maximum  Time of Max    Reported
                                   Depth    Depth      HGL   Occurrence   Max Depth
  Node                 Type       Meters   Meters   Meters  days hr:min      Meters
  ---------------------------------------------------------------------------------
  J1                   JUNCTION     0.14     0.70    12.20     0  15:14        0.70
  J2                   JUNCTION     0.13     0.67    13.17     0  15:40        0.67
  J3                   JUNCTION     0.15     0.70    13.40     0  15:12        0.70
  J4                   JUNCTION     0.11     0.70    14.10     0  15:13        0.70
  J5                   JUNCTION     0.06     0.50    14.80     0  15:21        0.50
  J6                   JUNCTION     0.03     0.25    15.75     0  15:21        0.25
  J7                   JUNCTION     0.01     0.10    23.16     0  15:30        0.10
  J8                   JUNCTION     0.03     0.24    16.81     0  15:30        0.24
  J9                   JUNCTION     0.14     1.00    16.45     0  15:15        1.00
  J10                  JUNCTION     0.14     1.00    15.76     0  15:14        1.00
  J11                  JUNCTION     0.04     0.22    14.42     0  15:15        0.22
  J12                  JUNCTION     0.03     0.41    16.17     0  15:20        0.41
  J13                  JUNCTION     0.10     0.74    18.19     0  15:18        0.74
  J14                  JUNCTION     0.15     1.00    18.86     0  15:15        1.00
  J15                  JUNCTION     0.02     0.21    21.75     0  15:30        0.21
  J16                  JUNCTION     0.14     1.00    21.25     0  15:17        1.00
  J17                  JUNCTION     0.11     1.00    23.86     0  15:32        1.00
  J18                  JUNCTION     0.02     0.24    22.80     0  15:29        0.24
  J19                  JUNCTION     0.02     0.19    24.09     0  15:28        0.19
  J20                  JUNCTION     0.02     0.20    24.80     0  15:29        0.20
  J21                  JUNCTION     0.04     0.53    28.28     0  15:28        0.53
  J22                  JUNCTION     0.02     0.25    25.90     0  15:22        0.25
  J23                  JUNCTION     0.02     0.21    26.46     0  15:21        0.21
  J24                  JUNCTION     0.02     0.28    26.82     0  15:20        0.27
  J25                  JUNCTION     0.02     0.27    29.84     0  15:26        0.27
  J26                  JUNCTION     0.01     0.16    40.03     0  15:30        0.16
  J27                  JUNCTION     0.02     0.24    31.89     0  15:23        0.23
  J28                  JUNCTION     0.00     0.08    35.33     0  15:10        0.08
  J29                  JUNCTION     0.02     0.24    32.80     0  15:17        0.24
  J30                  JUNCTION     0.00     0.06    44.12     0  15:11        0.06
  J31                  JUNCTION     0.00     0.03    49.14     0  15:10        0.03
  J32                  JUNCTION     0.00     0.07    35.63     0  15:12        0.06
  J33                  JUNCTION     0.03     0.34    19.54     0  15:30        0.34
  J34                  JUNCTION     0.03     0.36    19.01     0  15:31        0.35
  J35                  JUNCTION     0.05     0.50    18.29     0  15:31        0.50
  J36                  JUNCTION     0.06     0.66    17.94     0  15:31        0.66
  OUT1                 OUTFALL      0.05     0.50    17.15     0  15:32        0.50
  OUT2                 OUTFALL      0.11     0.53    10.78     0  16:06        0.53
  
  
  *******************
  Node Inflow Summary
  *******************
  
  -------------------------------------------------------------------------------------------------
                                  Maximum  Maximum                  Lateral       Total        Flow
                                  Lateral    Total  Time of Max      Inflow      Inflow     Balance
                                   Inflow   Inflow   Occurrence      Volume      Volume       Error
  Node                 Type           CMS      CMS  days hr:min    10^6 ltr    10^6 ltr     Percent
  -------------------------------------------------------------------------------------------------
  J1                   JUNCTION     0.778    1.883     0  15:30        3.44        18.5       0.143
  J2                   JUNCTION     0.136    1.233     0  15:12       0.781        15.1       0.168
  J3                   JUNCTION     0.251    2.087     0  15:30        1.39        20.6       0.067
  J4                   JUNCTION     0.027    2.357     0  15:21      0.0866        20.8       0.034
  J5                   JUNCTION     0.127    1.748     0  15:20       0.327        13.8       0.054
  J6                   JUNCTION     0.254    0.431     0  15:20        1.01        2.31       0.097
  J7                   JUNCTION     0.202    0.202     0  15:30       0.949       0.949       0.023
  J8                   JUNCTION     0.048    0.640     0  15:30       0.161         4.6       0.069
  J9                   JUNCTION     0.075    2.243     0  15:20       0.195        18.7       0.063
  J10                  JUNCTION     0.000    2.172     0  15:20           0          19       0.057
  J11                  JUNCTION     0.000    0.583     0  15:16           0        6.89       0.019
  J12                  JUNCTION     0.301    0.301     0  15:20         1.2         1.2       0.021
  J13                  JUNCTION     0.146    2.132     0  15:16       0.503        18.7       0.046
  J14                  JUNCTION     0.073    2.312     0  15:30        0.21        18.8       0.063
  J15                  JUNCTION     0.236    0.527     0  15:30        1.07         2.3       0.029
  J16                  JUNCTION     0.072    2.629     0  15:33       0.256          18       0.046
  J17                  JUNCTION     2.088    2.312     0  15:40        15.4        16.3       0.050
  J18                  JUNCTION     0.000    0.640     0  15:29           0        2.69       0.021
  J19                  JUNCTION     0.104    0.640     0  15:28       0.217        2.69       0.027
  J20                  JUNCTION     0.000    0.553     0  15:28           0        2.32       0.037
  J21                  JUNCTION     0.000    0.556     0  15:26           0        2.32       0.062
  J22                  JUNCTION     0.031    0.273     0  15:21      0.0795        1.15       0.057
  J23                  JUNCTION     0.000    0.253     0  15:20           0        1.07       0.038
  J24                  JUNCTION     0.253    0.253     0  15:20        1.07        1.07       0.019
  J25                  JUNCTION     0.000    0.559     0  15:23           0        2.32       0.066
  J26                  JUNCTION     0.264    0.264     0  15:30        1.19        1.19       0.081
  J27                  JUNCTION     0.000    0.316     0  15:18           0        1.13       0.044
  J28                  JUNCTION     0.073    0.073     0  15:10       0.206       0.206       0.010
  J29                  JUNCTION     0.121    0.327     0  15:11       0.337       0.921       0.100
  J30                  JUNCTION     0.091    0.123     0  15:10       0.219         0.3       0.009
  J31                  JUNCTION     0.091    0.091     0  15:10       0.211       0.211       0.002
  J32                  JUNCTION     0.053    0.105     0  15:10       0.155       0.285       0.002
  J33                  JUNCTION     0.691    0.691     0  15:30        3.63        3.63       0.032
  J34                  JUNCTION     0.094    0.758     0  15:30       0.288        3.92       0.031
  J35                  JUNCTION     0.248    0.903     0  15:30        0.62        4.54       0.053
  J36                  JUNCTION     0.344    1.105     0  15:30       0.861         5.4       0.078
  OUT1                 OUTFALL      0.000    1.104     0  15:32           0        5.39       0.000
  OUT2                 OUTFALL      1.307    2.514     0  15:40        13.9        30.7       0.000
  
  
  **********************
  Node Surcharge Summary
  **********************
  
  Surcharging occurs when water rises above the top of the highest conduit.
  ---------------------------------------------------------------------
                                               Max. Height   Min. Depth
                                   Hours       Above Crown    Below Rim
  Node                 Type      Surcharged         Meters       Meters
  ---------------------------------------------------------------------
  J1                   JUNCTION        1.39          0.000        0.000
  J3                   JUNCTION        2.39          0.000        0.000
  J4                   JUNCTION        1.22          0.000        0.000
  J9                   JUNCTION        0.98          0.000        0.000
  J10                  JUNCTION        1.06          0.000        0.000
  J14                  JUNCTION        0.79          0.000        0.000
  J16                  JUNCTION        0.85          0.000        0.000
  J17                  JUNCTION        0.17          0.000        0.000
  
  
  *********************
  Node Flooding Summary
  *********************
  
  Flooding refers to all water that overflows a node, whether it ponds or not.
  --------------------------------------------------------------------------
                                                             Total   Maximum
                                 Maximum   Time of Max       Flood    Ponded
                        Hours       Rate    Occurrence      Volume     Depth
  Node                 Flooded       CMS   days hr:min    10^6 ltr    Meters
  --------------------------------------------------------------------------
  J1                      1.39     0.676      0  15:30       1.684     0.000
  J3                      2.38     1.114      0  15:33       6.260     0.000
  J4                      1.22     0.521      0  15:21       1.556     0.000
  J9                      0.98     0.372      0  15:20       0.916     0.000
  J10                     1.06     0.368      0  15:20       0.911     0.000
  J14                     0.79     0.324      0  15:29       0.593     0.000
  J16                     0.84     0.899      0  15:33       1.706     0.000
  J17                     0.17     0.088      0  15:40       0.029     0.000
  
  
  ***********************
  Outfall Loading Summary
  ***********************
  
  -----------------------------------------------------------
                         Flow       Avg       Max       Total
                         Freq      Flow      Flow      Volume
  Outfall Node           Pcnt       CMS       CMS    10^6 ltr
  -----------------------------------------------------------
  OUT1                  39.41     0.182     1.104       5.394
  OUT2                  40.64     0.941     2.514      30.708
  -----------------------------------------------------------
  System                40.03     1.122     3.575      36.103
  
  
  ********************
  Link Flow Summary
  ********************
  
  -----------------------------------------------------------------------------
                                 Maximum  Time of Max   Maximum    Max/    Max/
                                  |Flow|   Occurrence   |Veloc|    Full    Full
  Link                 Type          CMS  days hr:min     m/sec    Flow   Depth
  -----------------------------------------------------------------------------
  C1                   CONDUIT     1.206     0  16:06      1.96    0.95    0.88
  C2                   CONDUIT     1.107     0  15:40      1.61    0.95    0.98
  C3                   CONDUIT     1.140     0  15:12      1.96    1.20    0.98
  C4                   CONDUIT     1.836     0  16:08      2.62    1.00    1.00
  C5                   CONDUIT     1.748     0  15:21      2.92    0.62    0.86
  C6                   CONDUIT     0.430     0  15:21      1.30    0.25    0.54
  C7                   CONDUIT     0.692     0  15:30      1.99    0.38    0.50
  C8                   CONDUIT     0.757     0  15:31      1.77    0.40    0.61
  C9                   CONDUIT     0.900     0  15:31      1.56    0.64    0.83
  C10                  CONDUIT     1.104     0  15:32      1.91    0.91    0.83
  C11                  CONDUIT     0.583     0  15:15      1.36    0.21    0.66
  C12                  CONDUIT     0.583     0  15:16      2.84    1.28    0.68
  C13                  CONDUIT     1.282     0  16:17      2.22    1.12    0.75
  C14                  CONDUIT     1.871     0  16:10      2.34    1.00    1.00
  C15                  CONDUIT     0.301     0  15:20      1.81    0.36    0.71
  C16                  CONDUIT     0.461     0  15:30      0.93    0.16    0.62
  C17                  CONDUIT     0.202     0  15:30      1.62    0.04    0.17
  C18                  CONDUIT     0.178     0  15:30      1.72    0.36    0.45
  C19                  CONDUIT     0.399     0  15:20      2.38    0.72    0.49
  C20                  CONDUIT     1.727     0  15:18      2.65    0.69    0.87
  C21                  CONDUIT     2.004     0  16:03      3.12    1.21    0.87
  C22                  CONDUIT     0.527     0  15:30      0.99    0.12    0.60
  C23                  CONDUIT     1.730     0  15:20      2.90    1.00    1.00
  C24                  CONDUIT     0.291     0  15:29      2.18    0.30    0.37
  C25                  CONDUIT     0.349     0  15:29      1.19    0.30    0.70
  C26                  CONDUIT     2.224     0  15:40      3.71    1.00    1.00
  C27                  CONDUIT     0.640     0  15:29      2.15    0.09    0.21
  C28                  CONDUIT     0.314     0  15:29      2.31    0.09    0.14
  C29                  CONDUIT     0.273     0  15:23      1.88    0.25    0.31
  C30                  CONDUIT     0.553     0  15:28      2.16    0.40    0.37
  C31                  CONDUIT     0.252     0  15:21      1.56    0.20    0.33
  C32                  CONDUIT     0.253     0  15:20      1.49    0.30    0.35
  C33                  CONDUIT     0.556     0  15:26      2.19    0.19    0.40
  C34                  CONDUIT     0.263     0  15:30      2.27    0.16    0.36
  C35                  CONDUIT     0.300     0  15:23      2.00    0.16    0.25
  C36                  CONDUIT     0.071     0  15:10      1.42    0.06    0.24
  C37                  CONDUIT     0.271     0  15:19      1.20    0.14    0.23
  C38                  CONDUIT     0.116     0  15:11      1.34    0.03    0.18
  C39                  CONDUIT     0.097     0  15:12      0.85    0.02    0.15
  C40                  CONDUIT     0.054     0  15:10      1.28    0.01    0.06
  C41                  CONDUIT     0.033     0  15:10      0.85    0.01    0.06
  C42                  CONDUIT     0.238     0  15:29      0.41    0.12    0.60
  
  
  ***************************
  Flow Classification Summary
  ***************************
  
  -------------------------------------------------------------------------------------
                      Adjusted    ---------- Fraction of Time in Flow Class ---------- 
                       /Actual         Up    Down  Sub   Sup   Up    Down  Norm  Inlet 
  Conduit               Length    Dry  Dry   Dry   Crit  Crit  Crit  Crit  Ltd   Ctrl  
  -------------------------------------------------------------------------------------
  C1                      1.00   0.60  0.00  0.00  0.40  0.00  0.00  0.00  0.00  0.00
  C2                      1.00   0.60  0.01  0.00  0.39  0.00  0.00  0.00  0.39  0.00
  C3                      1.00   0.60  0.00  0.00  0.40  0.00  0.00  0.00  0.00  0.00
  C4                      1.00   0.60  0.00  0.00  0.35  0.05  0.00  0.00  0.33  0.00
  C5                      1.00   0.60  0.00  0.00  0.24  0.16  0.00  0.00  0.31  0.00
  C6                      1.00   0.60  0.00  0.00  0.40  0.00  0.00  0.00  0.37  0.00
  C7                      1.00   0.60  0.00  0.00  0.17  0.24  0.00  0.00  0.12  0.00
  C8                      1.00   0.60  0.00  0.00  0.40  0.00  0.00  0.00  0.38  0.00
  C9                      1.00   0.60  0.00  0.00  0.40  0.00  0.00  0.00  0.38  0.00
  C10                     1.00   0.60  0.00  0.00  0.40  0.00  0.00  0.00  0.00  0.00
  C11                     1.00   0.60  0.02  0.00  0.38  0.00  0.00  0.00  0.38  0.00
  C12                     1.00   0.61  0.00  0.00  0.02  0.37  0.00  0.00  0.00  0.00
  C13                     1.00   0.60  0.01  0.00  0.39  0.00  0.00  0.00  0.01  0.00
  C14                     1.00   0.60  0.00  0.00  0.40  0.00  0.00  0.00  0.26  0.00
  C15                     1.00   0.60  0.00  0.00  0.37  0.03  0.00  0.00  0.37  0.00
  C16                     1.00   0.60  0.01  0.00  0.39  0.00  0.00  0.00  0.39  0.00
  C17                     1.00   0.60  0.00  0.00  0.34  0.06  0.00  0.00  0.37  0.00
  C18                     1.00   0.60  0.01  0.00  0.03  0.36  0.00  0.00  0.05  0.00
  C19                     1.00   0.60  0.00  0.00  0.02  0.38  0.00  0.00  0.00  0.00
  C20                     1.00   0.60  0.00  0.00  0.11  0.28  0.00  0.00  0.37  0.00
  C21                     1.00   0.60  0.00  0.00  0.02  0.38  0.00  0.00  0.00  0.00
  C22                     1.00   0.60  0.00  0.00  0.39  0.00  0.00  0.00  0.39  0.00
  C23                     1.00   0.60  0.00  0.00  0.06  0.33  0.00  0.00  0.33  0.00
  C24                     1.00   0.60  0.00  0.00  0.06  0.34  0.00  0.00  0.24  0.00
  C25                     1.00   0.60  0.00  0.00  0.40  0.00  0.00  0.00  0.39  0.00
  C26                     1.00   0.60  0.00  0.00  0.00  0.40  0.00  0.00  0.36  0.00
  C27                     1.00   0.60  0.00  0.00  0.01  0.39  0.00  0.00  0.37  0.00
  C28                     1.00   0.60  0.03  0.00  0.01  0.36  0.00  0.00  0.01  0.00
  C29                     1.00   0.60  0.00  0.00  0.21  0.19  0.00  0.00  0.03  0.00
  C30                     1.00   0.62  0.00  0.00  0.09  0.29  0.00  0.00  0.00  0.00
  C31                     1.00   0.60  0.01  0.00  0.25  0.14  0.00  0.00  0.37  0.00
  C32                     1.00   0.60  0.00  0.00  0.40  0.00  0.00  0.00  0.00  0.00
  C33                     1.00   0.62  0.00  0.00  0.23  0.15  0.00  0.00  0.36  0.00
  C34                     1.00   0.60  0.00  0.00  0.01  0.39  0.00  0.00  0.36  0.00
  C35                     1.00   0.62  0.00  0.00  0.26  0.13  0.00  0.00  0.38  0.00
  C36                     1.00   0.60  0.00  0.00  0.37  0.03  0.00  0.00  0.37  0.00
  C37                     1.00   0.60  0.00  0.00  0.40  0.00  0.00  0.00  0.36  0.00
  C38                     1.00   0.60  0.00  0.00  0.36  0.04  0.00  0.00  0.38  0.00
  C39                     1.00   0.60  0.00  0.00  0.38  0.02  0.00  0.00  0.37  0.00
  C40                     1.00   0.60  0.00  0.00  0.28  0.12  0.00  0.00  0.40  0.00
  C41                     1.00   0.60  0.00  0.00  0.34  0.06  0.00  0.00  0.40  0.00
  C42                     1.00   0.60  0.03  0.00  0.37  0.00  0.00  0.00  0.37  0.00
  
  
  *************************
  Conduit Surcharge Summary
  *************************
  
  ----------------------------------------------------------------------------
                                                           Hours        Hours 
                         --------- Hours Full --------   Above Full   Capacity
  Conduit                Both Ends  Upstream  Dnstream   Normal Flow   Limited
  ----------------------------------------------------------------------------
  C3                          0.01      0.01      0.01      2.46         0.01
  C12                         0.01      2.06      0.01      2.16         0.01
  C13                         0.01      1.06      0.01      1.17         0.01
  C14                         0.98      0.98      1.06      0.01         0.01
  C15                         0.01      0.01      1.06      0.01         0.01
  C16                         0.01      0.01      0.98      0.01         0.01
  C20                         0.01      0.01      0.98      0.01         0.01
  C21                         0.01      0.79      0.01      1.12         0.01
  C22                         0.01      0.01      0.79      0.01         0.01
  C23                         0.01      0.01      0.79      0.01         0.01
  C25                         0.01      0.01      2.07      0.01         0.01
  

  Analysis begun on:  Tue Jun 23 20:54:30 2026
  Analysis ended on:  Tue Jun 23 20:54:31 2026
  Total elapsed time: 00:00:01