
  EPA STORM WATER MANAGEMENT MODEL - VERSION 5.2 (Build 5.2.4)
  ------------------------------------------------------------

  Scenario Run :  EXPORTEDLID 
  WARNING 04: minimum elevation drop used for Conduit 1
  WARNING 04: minimum elevation drop used for Conduit 2
  WARNING 04: minimum elevation drop used for Conduit 3
  WARNING 04: minimum elevation drop used for Conduit 5
  WARNING 04: minimum elevation drop used for Conduit 7
  
  ****************
  Analysis Options
  ****************
  Flow Units ............... CFS
  Process Models:
    Rainfall/Runoff ........ YES
    RDII ................... NO
    Snowmelt ............... NO
    Groundwater ............ NO
    Flow Routing ........... YES
    Ponding Allowed ........ NO
    Water Quality .......... YES
  Infiltration Method ...... GREEN_AMPT
  Flow Routing Method ...... DYNWAVE
  Surcharge Method ......... EXTRAN
  Starting Date ............ 01/01/2002 00:00:00
  Ending Date .............. 01/01/2002 08:00:00
  Antecedent Dry Days ...... 5.0
  Report Time Step ......... 00:05:00
  Wet Time Step ............ 00:01:00
  Dry Time Step ............ 01:00:00
  Routing Time Step ........ 30.00 sec
  Variable Time Step ....... YES
  Maximum Trials ........... 8
  Number of Threads ........ 1
  Head Tolerance ........... 0.000100 ft
  
  
  **************************        Volume         Depth
  Runoff Quantity Continuity     acre-feet        inches
  **************************     ---------       -------
  Initial LID Storage ......         1.570         0.025
  Total Precipitation ......       178.916         2.899
  Evaporation Loss .........         1.354         0.022
  Infiltration Loss ........       147.091         2.383
  Surface Runoff ...........        10.563         0.171
  Final Storage ............        21.478         0.348
  Continuity Error (%) .....        -0.000
  
  
  **************************           TSS            TP
  Runoff Quality Continuity            lbs           lbs
  **************************    ----------    ----------
  Initial Buildup ..........         0.000         0.000
  Surface Buildup ..........       843.365        33.735
  Wet Deposition ...........      2431.000        48.620
  Sweeping Removal .........         0.000         0.000
  Infiltration Loss ........      1904.110        39.442
  BMP Removal ..............      1398.488        41.023
  Surface Runoff ...........       237.190         7.243
  Remaining Buildup ........        72.781         1.511
  Continuity Error (%) .....       -10.329        -8.335
  
  
  **************************        Volume        Volume
  Flow Routing Continuity        acre-feet      10^6 gal
  **************************     ---------     ---------
  Dry Weather Inflow .......         0.907         0.295
  Wet Weather Inflow .......        10.554         3.439
  Groundwater Inflow .......         0.000         0.000
  RDII Inflow ..............         0.000         0.000
  External Inflow ..........         0.000         0.000
  External Outflow .........        11.117         3.623
  Flooding Loss ............         0.000         0.000
  Evaporation Loss .........         0.000         0.000
  Exfiltration Loss ........         0.007         0.002
  Initial Stored Volume ....         0.000         0.000
  Final Stored Volume ......         0.050         0.016
  Continuity Error (%) .....         2.499
  
  
  **************************           TSS            TP
  Quality Routing Continuity           lbs           lbs
  **************************    ----------    ----------
  Dry Weather Inflow .......         0.000         0.000
  Wet Weather Inflow .......       236.978         7.236
  Groundwater Inflow .......         0.000         0.000
  RDII Inflow ..............         0.000         0.000
  External Inflow ..........         0.000         0.000
  External Outflow .........       234.294         7.187
  Flooding Loss ............         0.000         0.000
  Exfiltration Loss ........         0.107         0.003
  Mass Reacted .............         0.000         0.000
  Initial Stored Mass ......         0.000         0.000
  Final Stored Mass ........         0.445         0.013
  Continuity Error (%) .....         0.900         0.466
  
  
  *************************
  Highest Continuity Errors
  *************************
  Node D (3.32%)
  
  
  ***************************
  Time-Step Critical Elements
  ***************************
  Link 1 (45.66%)
  
  
  ********************************
  Highest Flow Instability Indexes
  ********************************
  Link 2 (21)
  Link 5 (16)
  Link 1 (13)
  Link 7 (6)
  Link 3 (3)
  
  
  *********************************
  Most Frequent Nonconverging Nodes
  *********************************
  Node OUTFALL (5.15%)
  Node B (4.39%)
  Node C (4.29%)
  Node A (2.57%)
  Node D (0.29%)
  
  
  *************************
  Routing Time Step Summary
  *************************
  Minimum Time Step           :    14.23 sec
  Average Time Step           :    27.45 sec
  Maximum Time Step           :    30.00 sec
  % of Time in Steady State   :     0.00
  Average Iterations per Step :     3.16
  % of Steps Not Converging   :     5.15
  Time Step Frequencies       :
     30.000 -  3.817 sec      :   100.00 %
      3.817 -  0.486 sec      :     0.00 %
      0.486 -  0.062 sec      :     0.00 %
      0.062 -  0.008 sec      :     0.00 %
      0.008 -  0.001 sec      :     0.00 %
  
  
  ***************************
  Subcatchment Runoff Summary
  ***************************
  
  ------------------------------------------------------------------------------------------------------------------------------
                            Total      Total      Total      Total     Imperv       Perv      Total       Total     Peak  Runoff
                           Precip      Runon       Evap      Infil     Runoff     Runoff     Runoff      Runoff   Runoff   Coeff
  Subcatchment                 in         in         in         in         in         in         in    10^6 gal      CFS
  ------------------------------------------------------------------------------------------------------------------------------
  1                          2.90       0.00       0.02       1.90       0.73       0.32       0.35        0.76    13.46   0.120
  10                         2.90       0.00       0.03       2.06       1.20       0.33       0.50        0.59    10.20   0.172
  2                          2.90       0.71       0.02       2.35       0.62       0.48       0.64        0.69     8.65   0.178
  3                          2.90       0.00       0.02       2.67       0.08       0.13       0.21        0.24     6.87   0.073
  4                          2.90       0.00       0.02       2.37       0.44       0.11       0.31        0.32    10.10   0.108
  5                          2.90       0.18       0.02       2.54       0.34       0.23       0.26        0.35     7.56   0.084
  6                          2.90       0.29       0.02       2.45       0.76       0.26       0.29        0.70    10.65   0.092
  7                          2.90       0.00       0.02       2.45       0.84       0.12       0.15        0.84    15.53   0.051
  8                          2.90       0.27       0.02       2.50       0.61       0.31       0.43        1.32    21.29   0.135
  9                          2.90       0.55       0.02       2.42       0.70       0.54       0.71        0.76    11.48   0.205
  

  ***********************
  LID Performance Summary
  ***********************

  --------------------------------------------------------------------------------------------------------------------
                                         Total      Evap     Infil   Surface    Drain    Initial     Final  Continuity
                                        Inflow      Loss      Loss   Outflow   Outflow   Storage   Storage       Error
  Subcatchment      LID Control             in        in        in        in        in        in        in           %
  --------------------------------------------------------------------------------------------------------------------
  1                 GREENROOF             9.43      0.02      0.00      4.21      0.76      1.20      5.64        0.03
  1                 TRENCH               45.33      0.02      3.71     18.87     13.21      0.00      9.53       -0.01
  10                TRENCH               46.41      0.02      3.70     20.07     12.99      0.00      9.63       -0.01
  10                GREENROOF_2         220.47      0.03      0.00    214.48      2.14      0.90      4.73       -0.00
  2                 TRENCH                5.82      0.00      3.51      0.00      0.01      0.00      2.31       -0.07
  2                 GREENROOF_4           7.77      0.01      0.00      2.99      0.44      1.50      5.83        0.03
  4                 TRENCH                5.64      0.00      3.56      0.00      0.00      0.00      2.08       -0.06
  4                 GREENROOF_6           3.55      0.01      0.00      1.06      2.18      0.10      0.41       -0.01
  5                 GREENROOF_9           3.83      0.00      0.00      0.68      0.20      1.50      4.45        0.04
  5                 TRENCH                8.94      0.00      3.66      0.00      2.73      0.00      2.56       -0.01
  6                 GREENROOF_11         30.65      0.03      0.00     25.78      2.81      0.50      2.53       -0.00
  6                 TRENCH                7.69      0.00      3.58      0.00      1.59      0.00      2.53       -0.02
  7                 GREENROOF_13         11.07      0.02      0.00      7.00      2.68      0.30      1.66       -0.00
  7                 TRENCH               39.21      0.02      3.67     13.71     12.27      0.00      9.55       -0.02
  8                 GREENROOF_15         14.54      0.03      0.00      9.32      2.13      0.70      3.77       -0.00
  8                 TRENCH                7.93      0.00      3.61      0.00      1.82      0.00      2.51       -0.02
  9                 TRENCH                9.58      0.00      3.65      0.00      3.36      0.00      2.57       -0.01
  9                 GREENROOF_16          6.76      0.02      0.00      2.60      2.22      0.50      2.43       -0.02
  
  ****************************
  Subcatchment Washoff Summary
  ****************************
  
  ------------------------------------------------
                                 TSS            TP
  Subcatchment                   lbs           lbs
  ------------------------------------------------
  1                           47.862         1.394
  10                          39.034         1.165
  2                           45.211         1.347
  3                           15.998         0.480
  4                           19.105         0.537
  5                           21.902         0.637
  6                           44.573         1.305
  7                           53.847         1.580
  8                          100.619         3.224
  9                           50.990         1.539
  ------------------------------------------------
  System                     439.142        13.208
  
  
  ******************
  Node Depth Summary
  ******************
  
  ---------------------------------------------------------------------------------
                                 Average  Maximum  Maximum  Time of Max    Reported
                                   Depth    Depth      HGL   Occurrence   Max Depth
  Node                 Type         Feet     Feet     Feet  days hr:min        Feet
  ---------------------------------------------------------------------------------
  A                    JUNCTION     1.92     3.41   253.11     0  04:18        3.41
  B                    JUNCTION     1.93     3.43   253.13     0  04:17        3.43
  C                    JUNCTION     1.94     3.43   253.14     0  04:18        3.43
  E                    JUNCTION     0.20     0.44   313.07     0  04:06        0.44
  F                    JUNCTION     1.94     3.43   253.14     0  04:18        3.43
  G                    JUNCTION     0.23     0.50   330.68     0  03:31        0.49
  OUTFALL              OUTFALL      1.18     2.38   252.09     0  04:18        2.38
  BMPSTORE             STORAGE      0.00     0.00     0.00     0  00:00        0.00
  D                    STORAGE      1.94     3.43   253.14     0  04:17        3.43
  
  
  *******************
  Node Inflow Summary
  *******************
  
  -------------------------------------------------------------------------------------------------
                                  Maximum  Maximum                  Lateral       Total        Flow
                                  Lateral    Total  Time of Max      Inflow      Inflow     Balance
                                   Inflow   Inflow   Occurrence      Volume      Volume       Error
  Node                 Type           CFS      CFS  days hr:min    10^6 gal    10^6 gal     Percent
  -------------------------------------------------------------------------------------------------
  A                    JUNCTION     21.29    54.17     0  04:17        1.32        3.64       0.227
  B                    JUNCTION      0.00    33.96     0  04:21           0        2.33       0.328
  C                    JUNCTION      0.00    33.91     0  04:20           0        2.33       0.363
  E                    JUNCTION     18.21    18.21     0  04:05        1.19        1.19       0.043
  F                    JUNCTION      0.00     1.43     0  03:31           0      0.0169      27.022
  G                    JUNCTION     21.01    21.01     0  03:30        1.22        1.22      -0.025
  OUTFALL              OUTFALL       0.00    54.16     0  04:18           0        3.62       0.000
  BMPSTORE             STORAGE       0.00     0.00     0  00:00           0           0       0.000 gal
  D                    STORAGE       0.00    35.57     0  03:41           0        2.43       3.429
  
  
  **********************
  Node Surcharge Summary
  **********************
  
  No nodes were surcharged.
  
  
  *********************
  Node Flooding Summary
  *********************
  
  No nodes were flooded.
  
  
  **********************
  Storage Volume Summary
  **********************
  
  ------------------------------------------------------------------------------------------------
                         Average    Avg   Evap  Exfil     Maximum    Max    Time of Max    Maximum
                          Volume   Pcnt   Pcnt   Pcnt      Volume   Pcnt     Occurrence    Outflow
  Storage Unit          1000 ftł   Full   Loss   Loss    1000 ftł   Full    days hr:min        CFS
  ------------------------------------------------------------------------------------------------
  BMPSTORE                 0.000    0.0    0.0    0.0       0.000    0.0       0  00:00       0.00
  D                        0.194   38.8    0.0    0.0       0.343   68.7       0  04:17      33.91
  
  
  ***********************
  Outfall Loading Summary
  ***********************
  
  ---------------------------------------------------------------------------------------
                         Flow       Avg       Max       Total         Total         Total
                         Freq      Flow      Flow      Volume           TSS            TP
  Outfall Node           Pcnt       CFS       CFS    10^6 gal           lbs           lbs
  ---------------------------------------------------------------------------------------
  OUTFALL               98.00     19.30     54.16       3.622       234.333         7.188
  ---------------------------------------------------------------------------------------
  System                98.00     19.30     54.16       3.622       234.333         7.188
  
  
  ********************
  Link Flow Summary
  ********************
  
  -----------------------------------------------------------------------------
                                 Maximum  Time of Max   Maximum    Max/    Max/
                                  |Flow|   Occurrence   |Veloc|    Full    Full
  Link                 Type          CFS  days hr:min    ft/sec    Flow   Depth
  -----------------------------------------------------------------------------
  1                    CONDUIT     34.03     0  04:23      2.27    1.68    0.68
  2                    CONDUIT     33.96     0  04:21      2.24    0.72    0.69
  3                    CONDUIT     54.16     0  04:18      4.80    7.42    0.58
  4                    CONDUIT     18.20     0  04:07     11.13    0.01    0.39
  5                    CONDUIT      1.43     0  03:31      1.15    0.10    0.69
  6                    CONDUIT     20.37     0  03:31     10.73    0.01    0.39
  7                    CONDUIT     33.91     0  04:20      5.17    0.35    0.69
  
  
  ***************************
  Flow Classification Summary
  ***************************
  
  -------------------------------------------------------------------------------------
                      Adjusted    ---------- Fraction of Time in Flow Class ---------- 
                       /Actual         Up    Down  Sub   Sup   Up    Down  Norm  Inlet 
  Conduit               Length    Dry  Dry   Dry   Crit  Crit  Crit  Crit  Ltd   Ctrl  
  -------------------------------------------------------------------------------------
  1                       5.64   0.00  0.00  0.00  1.00  0.00  0.00  0.00  0.00  0.00
  2                      33.52   0.00  0.00  0.00  0.99  0.01  0.00  0.00  0.00  0.00
  3                       1.00   0.01  0.00  0.00  0.99  0.00  0.00  0.00  0.00  0.00
  4                      22.36   0.00  0.00  0.00  0.94  0.06  0.00  0.00  0.99  0.00
  5                       2.98   0.00  0.00  0.00  1.00  0.00  0.00  0.00  0.00  0.00
  6                      13.34   0.00  0.00  0.00  0.91  0.09  0.00  0.00  0.99  0.00
  7                     166.41   0.00  0.00  0.00  0.98  0.02  0.00  0.00  0.00  0.00
  
  
  *************************
  Conduit Surcharge Summary
  *************************
  
  ----------------------------------------------------------------------------
                                                           Hours        Hours 
                         --------- Hours Full --------   Above Full   Capacity
  Conduit                Both Ends  Upstream  Dnstream   Normal Flow   Limited
  ----------------------------------------------------------------------------
  1                           0.01      0.01      0.01      1.96         0.01
  3                           0.01      0.01      0.01      3.70         0.01
  
  
  ***************************
  Link Pollutant Load Summary
  ***************************
  
  ------------------------------------------------
                                 TSS            TP
  Link                           lbs           lbs
  ------------------------------------------------
  1                          135.351         4.014
  2                          134.717         3.992
  3                          234.333         7.188
  4                           66.538         1.945
  5                            1.518         0.043
  6                           70.250         2.081
  7                          134.420         3.981
  

  Analysis begun on:  Tue Jun 23 20:54:31 2026
  Analysis ended on:  Tue Jun 23 20:54:31 2026
  Total elapsed time: < 1 sec