
  EPA STORM WATER MANAGEMENT MODEL - VERSION 5.2 (Build 5.2.4)
  ------------------------------------------------------------

  SWMM5.1 Master Example file of new features 
  
  *************
  Element Count
  *************
  Number of rain gages ...... 1
  Number of subcatchments ... 4
  Number of nodes ........... 5
  Number of links ........... 4
  Number of pollutants ...... 5
  Number of land uses ....... 1
  
  
  *****************
  Pollutant Summary
  *****************
                               Ppt.      GW         Kdecay
  Name                 Units   Concen.   Concen.    1/days    CoPollutant
  -----------------------------------------------------------------------
  COD                   MG/L      5.00      0.00      0.00
  TOTSOL                MG/L      5.00      0.00      0.00
  TOTNIT                MG/L      0.30      0.00      0.00
  TSS                   MG/L      5.00      0.00      0.00
  PO4                   MG/L      0.00      0.00      0.00
  
  
  ***************
  Landuse Summary
  ***************
                         Sweeping   Maximum      Last
  Name                   Interval   Removal     Swept
  ---------------------------------------------------
  HOUSING                    0.00      0.00      0.00
  
  
  ****************
  Raingage Summary
  ****************
                                                      Data       Recording
  Name                 Data Source                    Type       Interval 
  ------------------------------------------------------------------------
  GAGE1                RainSeries1                    INTENSITY    5 min.
  
  
  ********************
  Subcatchment Summary
  ********************
  Name                       Area     Width   %Imperv    %Slope Rain Gage            Outlet              
  -----------------------------------------------------------------------------------------------------------
  CA-1                       5.00    600.00     39.00    2.7000 GAGE1                P001                
  CA-7                       1.60    200.00     48.60    2.7000 GAGE1                P005                
  CA-8                       4.57    500.00     46.70    2.7000 GAGE1                P009                
  CA-11                      3.58    600.00     47.00    2.7000 GAGE1                P011                


  *******************
  LID Control Summary
  *******************
                                   No. of        Unit        Unit      % Area    % Imperv      % Perv
  Subcatchment     LID Control      Units        Area       Width     Covered     Treated     Treated
  ---------------------------------------------------------------------------------------------------
  CA-8             PermeablePavement     1       50.00       10.00        0.03        5.00        0.00
  CA-8             Infiltrench          1      500.00      100.00        0.25       10.00        0.00
  CA-8             Greenroof            1      125.00       50.00        0.06       10.00        0.00
  CA-8             RainGarden           1      500.00      100.00        0.25       10.00        0.00
  CA-8             RB                   1       12.00        0.00        0.01        0.00        0.00
  CA-8             SwaleLawn            1      100.00      100.00        0.05       10.00        0.00
  CA-8             BIO                  1      100.00      100.00        0.05       10.00        0.00
  
  
  ************
  Node Summary
  ************
                                           Invert      Max.    Ponded    External
  Name                 Type                 Elev.     Depth      Area    Inflow  
  -------------------------------------------------------------------------------
  P001                 JUNCTION              1.10     20.00       0.0
  P005                 JUNCTION              1.58     20.00       0.0
  P011                 JUNCTION              2.89     20.00       0.0
  Outlet               OUTFALL               0.00      4.00       0.0
  P009                 STORAGE               3.60     20.00       0.0
  
  
  ************
  Link Summary
  ************
  Name             From Node        To Node          Type            Length    %Slope Roughness
  ---------------------------------------------------------------------------------------------
  P001             P001             Outlet           CONDUIT          220.0    0.5000    0.0150
  P005             P005             P001             CONDUIT          240.0    0.2000    0.0150
  P009             P009             P005             CONDUIT          505.0    0.4000    0.0240
  P011             P011             P005             CONDUIT          655.0    0.2000    0.0240
  
  
  *********************
  Cross Section Summary
  *********************
                                        Full     Full     Hyd.     Max.   No. of     Full
  Conduit          Shape               Depth     Area     Rad.    Width  Barrels     Flow
  ---------------------------------------------------------------------------------------
  P001             CIRCULAR             4.00    12.57     1.00     4.00        1    88.03
  P005             CIRCULAR             3.00     7.07     0.75     3.00        1    25.85
  P009             CIRCULAR             2.25     3.98     0.56     2.25        1    10.61
  P011             CIRCULAR             2.50     4.91     0.62     2.50        1     9.94
  
  
  ****************
  Analysis Options
  ****************
  Flow Units ............... CFS
  Process Models:
    Rainfall/Runoff ........ YES
    RDII ................... NO
    Snowmelt ............... NO
    Groundwater ............ YES
    Flow Routing ........... YES
    Ponding Allowed ........ NO
    Water Quality .......... NO
  Infiltration Method ...... GREEN_AMPT
  Flow Routing Method ...... DYNWAVE
  Surcharge Method ......... EXTRAN
  Starting Date ............ 07/15/1977 06:30:00
  Ending Date .............. 07/15/1977 10:15:00
  Antecedent Dry Days ...... 7.0
  Report Time Step ......... 00:01:00
  Wet Time Step ............ 00:01:00
  Dry Time Step ............ 00:01:00
  Routing Time Step ........ 30.00 sec
  Variable Time Step ....... YES
  Maximum Trials ........... 12
  Number of Threads ........ 1
  Head Tolerance ........... 0.001000 ft
  
  
  **************************        Volume         Depth
  Runoff Quantity Continuity     acre-feet        inches
  **************************     ---------       -------
  Initial LID Storage ......         0.006         0.005
  Total Precipitation ......         2.051         1.669
  Evaporation Loss .........         0.028         0.023
  Infiltration Loss ........         1.035         0.842
  Surface Runoff ...........         0.909         0.740
  Final Storage ............         0.086         0.070
  Continuity Error (%) .....        -0.085
  
  
  **************************        Volume         Depth
  Groundwater Continuity         acre-feet        inches
  **************************     ---------       -------
  Initial Storage ..........        77.401        63.000
  Infiltration .............         1.035         0.842
  Upper Zone ET ............         0.001         0.000
  Lower Zone ET ............         0.000         0.000
  Deep Percolation .........         0.000         0.000
  Groundwater Flow .........         0.000         0.000
  Final Storage ............        78.435        63.842
  Continuity Error (%) .....         0.000
  
  
  **************************        Volume        Volume
  Flow Routing Continuity        acre-feet      10^6 gal
  **************************     ---------     ---------
  Dry Weather Inflow .......         0.000         0.000
  Wet Weather Inflow .......         0.908         0.296
  Groundwater Inflow .......         0.000         0.000
  RDII Inflow ..............         0.000         0.000
  External Inflow ..........         0.000         0.000
  External Outflow .........         0.896         0.292
  Flooding Loss ............         0.000         0.000
  Evaporation Loss .........         0.000         0.000
  Exfiltration Loss ........         0.008         0.003
  Initial Stored Volume ....         0.000         0.000
  Final Stored Volume ......         0.001         0.000
  Continuity Error (%) .....         0.202
  
  
  ***************************
  Time-Step Critical Elements
  ***************************
  Link P001 (51.03%)
  
  
  ********************************
  Highest Flow Instability Indexes
  ********************************
  All links are stable.
  
  
  *********************************
  Most Frequent Nonconverging Nodes
  *********************************
  Convergence obtained at all time steps.
  
  
  *************************
  Routing Time Step Summary
  *************************
  Minimum Time Step           :    16.86 sec
  Average Time Step           :    25.33 sec
  Maximum Time Step           :    30.00 sec
  % of Time in Steady State   :     0.00
  Average Iterations per Step :     2.27
  % of Steps Not Converging   :     0.00
  Time Step Frequencies       :
     30.000 - 13.228 sec      :   100.00 %
     13.228 -  5.833 sec      :     0.00 %
      5.833 -  2.572 sec      :     0.00 %
      2.572 -  1.134 sec      :     0.00 %
      1.134 -  0.500 sec      :     0.00 %
  
  
  ***************************
  Subcatchment Runoff Summary
  ***************************
  
  ------------------------------------------------------------------------------------------------------------------------------
                            Total      Total      Total      Total     Imperv       Perv      Total       Total     Peak  Runoff
                           Precip      Runon       Evap      Infil     Runoff     Runoff     Runoff      Runoff   Runoff   Coeff
  Subcatchment                 in         in         in         in         in         in         in    10^6 gal      CFS
  ------------------------------------------------------------------------------------------------------------------------------
  CA-1                       1.67       0.00       0.02       0.89       0.62       0.08       0.71        0.10     5.53   0.425
  CA-7                       1.67       0.00       0.02       0.75       0.78       0.08       0.86        0.04     2.14   0.514
  CA-8                       1.67       0.00       0.02       0.87       0.74       0.19       0.65        0.08     4.28   0.387
  CA-11                      1.67       0.00       0.02       0.77       0.75       0.10       0.85        0.08     4.88   0.509
  

  ***********************
  LID Performance Summary
  ***********************

  --------------------------------------------------------------------------------------------------------------------
                                         Total      Evap     Infil   Surface    Drain    Initial     Final  Continuity
                                        Inflow      Loss      Loss   Outflow   Outflow   Storage   Storage       Error
  Subcatchment      LID Control             in        in        in        in        in        in        in           %
  --------------------------------------------------------------------------------------------------------------------
  CA-8              PermeablePavement    149.25      0.02     33.52     96.73     12.96      0.62      6.40        0.15
  CA-8              Infiltrench          31.18      0.01     32.55      0.00      0.00      1.70      0.49       -0.51
  CA-8              Greenroof           119.73      0.03      0.00    107.48      1.59      3.28     13.93       -0.01
  CA-8              RainGarden           31.18      0.02      0.97     19.19      0.00      2.78     13.80       -0.02
  CA-8              RB                    1.67      0.00      0.00      0.00      0.00      0.00      1.67        0.00
  CA-8              SwaleLawn           149.25      0.03      0.00    134.21      1.60      3.28     16.70       -0.01
  CA-8              BIO                 149.25      0.02      0.26    145.68      0.00      1.23      4.52       -0.00
  
  *******************
  Groundwater Summary
  *******************
  
  -----------------------------------------------------------------------------------------------------
                                            Total    Total  Maximum  Average  Average    Final    Final
                          Total    Total    Lower  Lateral  Lateral    Upper    Water    Upper    Water
                          Infil     Evap  Seepage  Outflow  Outflow   Moist.    Table   Moist.    Table
  Subcatchment               in       in       in       in      CFS                ft                ft
  -----------------------------------------------------------------------------------------------------
  CA-1                     0.89     0.00     0.00     0.00     0.00     0.25     1.00     0.25     1.00
  CA-7                     0.75     0.00     0.00     0.00     0.00     0.25     1.00     0.25     1.00
  CA-8                     0.87     0.00     0.00     0.00     0.00     0.25     1.00     0.25     1.00
  CA-11                    0.77     0.00     0.00     0.00     0.00     0.25     1.00     0.25     1.00
  
  
  ******************
  Node Depth Summary
  ******************
  
  ---------------------------------------------------------------------------------
                                 Average  Maximum  Maximum  Time of Max    Reported
                                   Depth    Depth      HGL   Occurrence   Max Depth
  Node                 Type         Feet     Feet     Feet  days hr:min        Feet
  ---------------------------------------------------------------------------------
  P001                 JUNCTION     0.46     1.02     2.12     0  02:28        1.02
  P005                 JUNCTION     0.52     1.22     2.80     0  02:28        1.21
  P011                 JUNCTION     0.44     1.12     4.01     0  02:26        1.12
  Outlet               OUTFALL      0.43     1.02     1.02     0  02:28        1.02
  P009                 STORAGE      0.38     0.95     4.55     0  02:26        0.94
  
  
  *******************
  Node Inflow Summary
  *******************
  
  -------------------------------------------------------------------------------------------------
                                  Maximum  Maximum                  Lateral       Total        Flow
                                  Lateral    Total  Time of Max      Inflow      Inflow     Balance
                                   Inflow   Inflow   Occurrence      Volume      Volume       Error
  Node                 Type           CFS      CFS  days hr:min    10^6 gal    10^6 gal     Percent
  -------------------------------------------------------------------------------------------------
  P001                 JUNCTION      5.53    12.53     0  02:27       0.096       0.292      -0.007
  P005                 JUNCTION      2.14     9.86     0  02:25      0.0372       0.199       0.843
  P011                 JUNCTION      4.88     4.88     0  02:25      0.0825      0.0825      -0.635
  Outlet               OUTFALL       0.00    12.48     0  02:28           0       0.292       0.000
  P009                 STORAGE       4.28     4.28     0  02:25        0.08        0.08      -0.076
  
  
  **********************
  Node Surcharge Summary
  **********************
  
  No nodes were surcharged.
  
  
  *********************
  Node Flooding Summary
  *********************
  
  No nodes were flooded.
  
  
  **********************
  Storage Volume Summary
  **********************
  
  ------------------------------------------------------------------------------------------------
                         Average    Avg   Evap  Exfil     Maximum    Max    Time of Max    Maximum
                          Volume   Pcnt   Pcnt   Pcnt      Volume   Pcnt     Occurrence    Outflow
  Storage Unit          1000 ftł   Full   Loss   Loss    1000 ftł   Full    days hr:min        CFS
  ------------------------------------------------------------------------------------------------
  P009                     0.019    1.9    0.0    0.1       0.047    4.7       0  02:26       3.93
  
  
  ***********************
  Outfall Loading Summary
  ***********************
  
  ---------------------------------------------------------------------------------------------------------------------------------
                         Flow       Avg       Max       Total         Total         Total         Total         Total         Total
                         Freq      Flow      Flow      Volume           COD        TOTSOL        TOTNIT           TSS           PO4
  Outfall Node           Pcnt       CFS       CFS    10^6 gal           lbs           lbs           lbs           lbs           lbs
  ---------------------------------------------------------------------------------------------------------------------------------
  Outlet                97.75      3.75     12.48       0.292         0.000         0.000         0.000         0.000         0.000
  ---------------------------------------------------------------------------------------------------------------------------------
  System                97.75      3.75     12.48       0.292         0.000         0.000         0.000         0.000         0.000
  
  
  ********************
  Link Flow Summary
  ********************
  
  -----------------------------------------------------------------------------
                                 Maximum  Time of Max   Maximum    Max/    Max/
                                  |Flow|   Occurrence   |Veloc|    Full    Full
  Link                 Type          CFS  days hr:min    ft/sec    Flow   Depth
  -----------------------------------------------------------------------------
  P001                 CONDUIT     12.48     0  02:28      4.96    0.14    0.25
  P005                 CONDUIT      8.76     0  02:28      3.66    0.34    0.37
  P009                 CONDUIT      3.93     0  02:26      2.19    0.37    0.47
  P011                 CONDUIT      4.11     0  02:26      1.93    0.41    0.46
  
  
  ***************************
  Flow Classification Summary
  ***************************
  
  -------------------------------------------------------------------------------------
                      Adjusted    ---------- Fraction of Time in Flow Class ---------- 
                       /Actual         Up    Down  Sub   Sup   Up    Down  Norm  Inlet 
  Conduit               Length    Dry  Dry   Dry   Crit  Crit  Crit  Crit  Ltd   Ctrl  
  -------------------------------------------------------------------------------------
  P001                    1.00   0.02  0.00  0.00  0.34  0.64  0.00  0.00  0.02  0.00
  P005                    1.00   0.02  0.00  0.00  0.98  0.00  0.00  0.00  0.16  0.00
  P009                    1.00   0.02  0.00  0.00  0.98  0.00  0.00  0.00  0.87  0.00
  P011                    1.00   0.02  0.00  0.00  0.98  0.00  0.00  0.00  0.76  0.00
  
  
  *************************
  Conduit Surcharge Summary
  *************************
  
  No conduits were surcharged.
  

  Analysis begun on:  Tue Jun 23 20:54:31 2026
  Analysis ended on:  Tue Jun 23 20:54:31 2026
  Total elapsed time: < 1 sec