
  EPA STORM WATER MANAGEMENT MODEL - VERSION 5.2 (Build 5.2.4)
  ------------------------------------------------------------

   SW 1 0 9A1 'BROWARD COUNTY Multi FAMILY SITE - Runoff example # 47'A2 'RUNO 
  
  *************
  Element Count
  *************
  Number of rain gages ...... 1
  Number of subcatchments ... 4
  Number of nodes ........... 5
  Number of links ........... 4
  Number of pollutants ...... 5
  Number of land uses ....... 1
  
  
  *****************
  Pollutant Summary
  *****************
                               Ppt.      GW         Kdecay
  Name                 Units   Concen.   Concen.    1/days    CoPollutant
  -----------------------------------------------------------------------
  COD                   MG/L      5.00      0.00      0.00
  TOTSOL                MG/L      5.00      0.00      0.00
  TOTNIT                MG/L      0.30      0.00      0.00
  TSS                   MG/L      5.00      0.00      0.00
  PO4                   MG/L      0.00      0.00      0.00
  
  
  ***************
  Landuse Summary
  ***************
                         Sweeping   Maximum      Last
  Name                   Interval   Removal     Swept
  ---------------------------------------------------
  HOUSING                    0.00      0.00      0.00
  
  
  ****************
  Raingage Summary
  ****************
                                                      Data       Recording
  Name                 Data Source                    Type       Interval 
  ------------------------------------------------------------------------
  GAGE1                RainSeries1                    INTENSITY    5 min.
  
  
  ********************
  Subcatchment Summary
  ********************
  Name                       Area     Width   %Imperv    %Slope Rain Gage            Outlet              
  -----------------------------------------------------------------------------------------------------------
  CA-1                       5.00    600.00     39.00    2.7000 GAGE1                P001                
  CA-7                       1.60    200.00     48.60    2.7000 GAGE1                P005                
  CA-8                       4.57    500.00     46.70    2.7000 GAGE1                P009                
  CA-11                      3.58    600.00     47.00    2.7000 GAGE1                P011                
  
  
  ************
  Node Summary
  ************
                                           Invert      Max.    Ponded    External
  Name                 Type                 Elev.     Depth      Area    Inflow  
  -------------------------------------------------------------------------------
  P001                 JUNCTION              1.10     20.00       0.0
  P005                 JUNCTION              1.58     20.00       0.0
  P009                 JUNCTION              3.60     20.00       0.0    Yes
  P011                 JUNCTION              2.89     20.00       0.0    Yes
  Outlet               OUTFALL               0.00      4.00       0.0
  
  
  ************
  Link Summary
  ************
  Name             From Node        To Node          Type            Length    %Slope Roughness
  ---------------------------------------------------------------------------------------------
  P001             P001             Outlet           CONDUIT          220.0    0.5000    0.0150
  P005             P005             P001             CONDUIT          240.0    0.2000    0.0150
  P009             P009             P005             CONDUIT          505.0    0.4000    0.0240
  P011             P011             P005             CONDUIT          655.0    0.2000    0.0240
  
  
  *********************
  Cross Section Summary
  *********************
                                        Full     Full     Hyd.     Max.   No. of     Full
  Conduit          Shape               Depth     Area     Rad.    Width  Barrels     Flow
  ---------------------------------------------------------------------------------------
  P001             CIRCULAR             4.00    12.57     1.00     4.00        1    88.03
  P005             CIRCULAR             3.00     7.07     0.75     3.00        1    25.85
  P009             CIRCULAR             2.25     3.98     0.56     2.25        1    10.61
  P011             CIRCULAR             2.50     4.91     0.62     2.50        1     9.94
  
  
  ****************
  Analysis Options
  ****************
  Flow Units ............... CFS
  Process Models:
    Rainfall/Runoff ........ YES
    RDII ................... YES
    Snowmelt ............... NO
    Groundwater ............ NO
    Flow Routing ........... YES
    Ponding Allowed ........ NO
    Water Quality .......... NO
  Infiltration Method ...... GREEN_AMPT
  Flow Routing Method ...... DYNWAVE
  Surcharge Method ......... EXTRAN
  Starting Date ............ 07/15/1977 06:30:00
  Ending Date .............. 07/15/1977 10:15:00
  Antecedent Dry Days ...... 7.0
  Report Time Step ......... 00:05:00
  Wet Time Step ............ 00:05:00
  Dry Time Step ............ 00:05:00
  Routing Time Step ........ 30.00 sec
  Variable Time Step ....... YES
  Maximum Trials ........... 8
  Number of Threads ........ 1
  Head Tolerance ........... 0.005000 ft
  
  
  **********************           Volume        Volume
  Rainfall Dependent I/I        acre-feet      10^6 gal
  **********************        ---------     ---------
  Sewershed Rainfall ......         0.278         0.091
  RDII Produced ...........         0.016         0.005
  RDII Ratio ..............         0.058
  
  
  *********************
  Control Actions Taken
  *********************
   07/15/1977: 06:30:00 Link P001 setting changed to   0.00 by Control ValveOpen1
   07/15/1977: 07:30:07 Link P001 setting changed to   1.00 by Control ValveOpen2
   07/15/1977: 08:30:17 Link P001 setting changed to   0.00 by Control ValveOpen1
   07/15/1977: 09:30:23 Link P001 setting changed to   1.00 by Control ValveOpen2

  
  **************************        Volume         Depth
  Runoff Quantity Continuity     acre-feet        inches
  **************************     ---------       -------
  Total Precipitation ......         2.051         1.669
  Outfall Runon ............         2.414         1.965
  Evaporation Loss .........         0.028         0.023
  Infiltration Loss ........         1.008         0.821
  Surface Runoff ...........         3.242         2.639
  Final Storage ............         0.256         0.208
  Continuity Error (%) .....        -1.557
  
  
  **************************        Volume        Volume
  Flow Routing Continuity        acre-feet      10^6 gal
  **************************     ---------     ---------
  Dry Weather Inflow .......         0.000         0.000
  Wet Weather Inflow .......         3.195         1.041
  Groundwater Inflow .......         0.000         0.000
  RDII Inflow ..............         0.015         0.005
  External Inflow ..........         0.000         0.000
  External Outflow .........         2.425         0.790
  Flooding Loss ............         0.670         0.218
  Evaporation Loss .........         0.000         0.000
  Exfiltration Loss ........         0.000         0.000
  Initial Stored Volume ....         0.000         0.000
  Final Stored Volume ......         0.099         0.032
  Continuity Error (%) .....         0.507
  
  
  *************************
  Highest Continuity Errors
  *************************
  Node P005 (3.17%)
  
  
  ***************************
  Time-Step Critical Elements
  ***************************
  Link P001 (59.32%)
  Link P005 (4.93%)
  
  
  ********************************
  Highest Flow Instability Indexes
  ********************************
  Link P005 (12)
  Link P011 (7)
  Link P009 (5)
  Link P001 (3)
  
  
  *********************************
  Most Frequent Nonconverging Nodes
  *********************************
  Node Outlet (7.24%)
  Node P011 (6.78%)
  Node P005 (3.39%)
  Node P009 (3.24%)
  Node P001 (2.77%)
  
  
  *************************
  Routing Time Step Summary
  *************************
  Minimum Time Step           :     2.04 sec
  Average Time Step           :    20.80 sec
  Maximum Time Step           :    30.00 sec
  % of Time in Steady State   :     0.00
  Average Iterations per Step :     3.34
  % of Steps Not Converging   :     7.24
  Time Step Frequencies       :
     30.000 - 13.228 sec      :    96.60 %
     13.228 -  5.833 sec      :     2.93 %
      5.833 -  2.572 sec      :     0.31 %
      2.572 -  1.134 sec      :     0.15 %
      1.134 -  0.500 sec      :     0.00 %
  
  
  ***************************
  Subcatchment Runoff Summary
  ***************************
  
  ------------------------------------------------------------------------------------------------------------------------------
                            Total      Total      Total      Total     Imperv       Perv      Total       Total     Peak  Runoff
                           Precip      Runon       Evap      Infil     Runoff     Runoff     Runoff      Runoff   Runoff   Coeff
  Subcatchment                 in         in         in         in         in         in         in    10^6 gal      CFS
  ------------------------------------------------------------------------------------------------------------------------------
  CA-1                       1.67       0.00       0.02       0.89       0.64       0.09       0.73        0.10     5.54   0.435
  CA-7                       1.67       0.00       0.02       0.75       0.80       0.08       0.88        0.04     2.14   0.527
  CA-8                       1.67       0.00       0.02       0.78       0.76       0.08       0.84        0.10     5.77   0.504
  CA-11                      1.67       8.09       0.02       0.80       4.58       3.81       8.39        0.82    25.58   0.859
  
  
  ******************
  Node Depth Summary
  ******************
  
  ---------------------------------------------------------------------------------
                                 Average  Maximum  Maximum  Time of Max    Reported
                                   Depth    Depth      HGL   Occurrence   Max Depth
  Node                 Type         Feet     Feet     Feet  days hr:min        Feet
  ---------------------------------------------------------------------------------
  P001                 JUNCTION     4.29    20.00    21.10     0  02:10       20.00
  P005                 JUNCTION     4.44    19.99    21.57     0  02:10       19.73
  P009                 JUNCTION     3.21    18.47    22.07     0  02:10       18.28
  P011                 JUNCTION     5.23    20.00    22.89     0  02:10       19.29
  Outlet               OUTFALL      0.73     4.00     4.00     0  03:00        1.35
  
  
  *******************
  Node Inflow Summary
  *******************
  
  -------------------------------------------------------------------------------------------------
                                  Maximum  Maximum                  Lateral       Total        Flow
                                  Lateral    Total  Time of Max      Inflow      Inflow     Balance
                                   Inflow   Inflow   Occurrence      Volume      Volume       Error
  Node                 Type           CFS      CFS  days hr:min    10^6 gal    10^6 gal     Percent
  -------------------------------------------------------------------------------------------------
  P001                 JUNCTION      5.54    29.39     0  01:01      0.0981        1.01      -0.652
  P005                 JUNCTION      2.14    27.26     0  01:10       0.038       0.948       3.275
  P009                 JUNCTION      5.80     9.40     0  02:05       0.106       0.114       2.455
  P011                 JUNCTION     25.62    25.62     0  03:10       0.804       0.806       1.447
  Outlet               OUTFALL       0.00   203.99     0  03:00           0        0.79       0.000
  
  
  **********************
  Node Surcharge Summary
  **********************
  
  Surcharging occurs when water rises above the top of the highest conduit.
  ---------------------------------------------------------------------
                                               Max. Height   Min. Depth
                                   Hours       Above Crown    Below Rim
  Node                 Type      Surcharged           Feet         Feet
  ---------------------------------------------------------------------
  P001                 JUNCTION        0.96         16.000        0.000
  P005                 JUNCTION        0.98         16.991        0.009
  P009                 JUNCTION        0.94         16.215        1.535
  P011                 JUNCTION        2.00         17.500        0.000
  
  
  *********************
  Node Flooding Summary
  *********************
  
  Flooding refers to all water that overflows a node, whether it ponds or not.
  --------------------------------------------------------------------------
                                                             Total   Maximum
                                 Maximum   Time of Max       Flood    Ponded
                        Hours       Rate    Occurrence      Volume     Depth
  Node                 Flooded       CFS   days hr:min    10^6 gal      Feet
  --------------------------------------------------------------------------
  P001                    0.84     21.46      0  02:25       0.218     0.000
  P011                    0.02      1.21      0  02:10       0.000     0.000
  
  
  ***********************
  Outfall Loading Summary
  ***********************
  
  ---------------------------------------------------------------------------------------------------------------------------------
                         Flow       Avg       Max       Total         Total         Total         Total         Total         Total
                         Freq      Flow      Flow      Volume           COD        TOTSOL        TOTNIT           TSS           PO4
  Outfall Node           Pcnt       CFS       CFS    10^6 gal           lbs           lbs           lbs           lbs           lbs
  ---------------------------------------------------------------------------------------------------------------------------------
  Outlet                61.33     17.90    203.99       0.790         0.000         0.000         0.000         0.000         0.000
  ---------------------------------------------------------------------------------------------------------------------------------
  System                61.33     17.90    203.99       0.790         0.000         0.000         0.000         0.000         0.000
  
  
  ********************
  Link Flow Summary
  ********************
  
  -----------------------------------------------------------------------------
                                 Maximum  Time of Max   Maximum    Max/    Max/
                                  |Flow|   Occurrence   |Veloc|    Full    Full
  Link                 Type          CFS  days hr:min    ft/sec    Flow   Depth
  -----------------------------------------------------------------------------
  P001                 CONDUIT    203.99     0  03:00     16.96    2.32    0.93
  P005                 CONDUIT     26.49     0  03:01      5.30    1.02    1.00
  P009                 CONDUIT      9.20     0  02:05      2.79    0.87    1.00
  P011                 CONDUIT     25.61     0  03:10      5.98    2.58    1.00
  
  
  ***************************
  Flow Classification Summary
  ***************************
  
  -------------------------------------------------------------------------------------
                      Adjusted    ---------- Fraction of Time in Flow Class ---------- 
                       /Actual         Up    Down  Sub   Sup   Up    Down  Norm  Inlet 
  Conduit               Length    Dry  Dry   Dry   Crit  Crit  Crit  Crit  Ltd   Ctrl  
  -------------------------------------------------------------------------------------
  P001                    1.00   0.02  0.00  0.00  0.53  0.45  0.00  0.00  0.07  0.00
  P005                    1.00   0.02  0.00  0.00  0.98  0.00  0.00  0.00  0.08  0.00
  P009                    1.00   0.02  0.00  0.00  0.98  0.00  0.00  0.00  0.63  0.00
  P011                    1.00   0.02  0.00  0.00  0.98  0.00  0.00  0.00  0.19  0.00
  
  
  *************************
  Conduit Surcharge Summary
  *************************
  
  ----------------------------------------------------------------------------
                                                           Hours        Hours 
                         --------- Hours Full --------   Above Full   Capacity
  Conduit                Both Ends  Upstream  Dnstream   Normal Flow   Limited
  ----------------------------------------------------------------------------
  P001                        0.01      0.01      0.01      0.01         0.01
  P005                        0.98      0.98      1.02      0.01         0.02
  P009                        0.93      0.93      1.09      0.01         0.01
  P011                        0.98      2.00      1.05      1.65         0.15
  

  Analysis begun on:  Tue Jun 23 20:54:31 2026
  Analysis ended on:  Tue Jun 23 20:54:31 2026
  Total elapsed time: < 1 sec