
  EPA STORM WATER MANAGEMENT MODEL - VERSION 5.2 (Build 5.2.4)
  ------------------------------------------------------------

  
  ERROR 235: invalid infiltration parameters at line 73 of [INFIL] section:
  80               95         0.3        7         

  
  ERROR 235: invalid infiltration parameters at line 74 of [INFIL] section:
  85               95         0.3        7         

  
  ERROR 235: invalid infiltration parameters at line 75 of [INFIL] section:
  90               95         0.3        7         

  
  ERROR 235: invalid infiltration parameters at line 76 of [INFIL] section:
  95               95         0.3        7         


  Analysis begun on:  Tue Jun 23 20:54:51 2026
  Analysis ended on:  Tue Jun 23 20:54:51 2026
  Total elapsed time: < 1 sec