
  EPA STORM WATER MANAGEMENT MODEL - VERSION 5.2 (Build 5.2.4)
  ------------------------------------------------------------

  Scenario Run :  POSTDEV-2YR 
  Example 1 
  WARNING 10: crest elevation raised to downstream invert for regulator Link ORI-19
  WARNING 10: crest elevation raised to downstream invert for regulator Link WEIR-19
  
  ****************
  Analysis Options
  ****************
  Flow Units ............... CFS
  Process Models:
    Rainfall/Runoff ........ YES
    RDII ................... NO
    Snowmelt ............... NO
    Groundwater ............ NO
    Flow Routing ........... YES
    Ponding Allowed ........ NO
    Water Quality .......... YES
  Infiltration Method ...... HORTON
  Flow Routing Method ...... DYNWAVE
  Surcharge Method ......... EXTRAN
  Starting Date ............ 01/01/1998 00:00:00
  Ending Date .............. 01/02/1998 12:00:00
  Antecedent Dry Days ...... 5.0
  Report Time Step ......... 01:00:00
  Wet Time Step ............ 00:15:00
  Dry Time Step ............ 01:00:00
  Routing Time Step ........ 60.00 sec
  Variable Time Step ....... YES
  Maximum Trials ........... 8
  Number of Threads ........ 1
  Head Tolerance ........... 0.005000 ft
  
  
  **************************        Volume         Depth
  Runoff Quantity Continuity     acre-feet        inches
  **************************     ---------       -------
  Total Precipitation ......         5.333         3.200
  Evaporation Loss .........         0.000         0.000
  Infiltration Loss ........         2.984         1.791
  Surface Runoff ...........         2.336         1.402
  Final Storage ............         0.022         0.013
  Continuity Error (%) .....        -0.174
  
  
  **************************           TSS          LEAD
  Runoff Quality Continuity            lbs           lbs
  **************************    ----------    ----------
  Initial Buildup ..........       848.214         0.000
  Surface Buildup ..........        76.337         0.027
  Wet Deposition ...........         0.000         0.000
  Sweeping Removal .........         0.000         0.000
  Infiltration Loss ........         0.000         0.000
  BMP Removal ..............         0.000         0.000
  Surface Runoff ...........       133.328         0.027
  Remaining Buildup ........       791.224         0.000
  Continuity Error (%) .....         0.000         0.000
  
  
  **************************        Volume        Volume
  Flow Routing Continuity        acre-feet      10^6 gal
  **************************     ---------     ---------
  Dry Weather Inflow .......         0.000         0.000
  Wet Weather Inflow .......         2.330         0.759
  Groundwater Inflow .......         0.000         0.000
  RDII Inflow ..............         0.000         0.000
  External Inflow ..........         0.000         0.000
  External Outflow .........         1.063         0.347
  Flooding Loss ............         0.000         0.000
  Evaporation Loss .........         0.000         0.000
  Exfiltration Loss ........         0.000         0.000
  Initial Stored Volume ....         0.000         0.000
  Final Stored Volume ......         1.266         0.413
  Continuity Error (%) .....         0.008
  
  
  **************************           TSS          LEAD
  Quality Routing Continuity           lbs           lbs
  **************************    ----------    ----------
  Dry Weather Inflow .......         0.000         0.000
  Wet Weather Inflow .......       132.976         0.027
  Groundwater Inflow .......         0.000         0.000
  RDII Inflow ..............         0.000         0.000
  External Inflow ..........         0.000         0.000
  External Outflow .........        59.711         0.012
  Flooding Loss ............         0.000         0.000
  Exfiltration Loss ........         0.000         0.000
  Mass Reacted .............         0.000         0.000
  Initial Stored Mass ......         0.000         0.000
  Final Stored Mass ........        73.106         0.015
  Continuity Error (%) .....         0.120         0.120
  
  
  ***************************
  Time-Step Critical Elements
  ***************************
  Link 15 (83.46%)
  
  
  ********************************
  Highest Flow Instability Indexes
  ********************************
  All links are stable.
  
  
  *********************************
  Most Frequent Nonconverging Nodes
  *********************************
  Node 21 (0.02%)
  Node 22 (0.02%)
  Node 18 (0.02%)
  
  
  *************************
  Routing Time Step Summary
  *************************
  Minimum Time Step           :     0.50 sec
  Average Time Step           :    25.77 sec
  Maximum Time Step           :    60.00 sec
  % of Time in Steady State   :     0.00
  Average Iterations per Step :     2.01
  % of Steps Not Converging   :     0.02
  Time Step Frequencies       :
     60.000 - 23.031 sec      :    38.11 %
     23.031 -  8.841 sec      :    43.42 %
      8.841 -  3.393 sec      :    18.46 %
      3.393 -  1.303 sec      :     0.00 %
      1.303 -  0.500 sec      :     0.02 %
  
  
  ***************************
  Subcatchment Runoff Summary
  ***************************
  
  ------------------------------------------------------------------------------------------------------------------------------
                            Total      Total      Total      Total     Imperv       Perv      Total       Total     Peak  Runoff
                           Precip      Runon       Evap      Infil     Runoff     Runoff     Runoff      Runoff   Runoff   Coeff
  Subcatchment                 in         in         in         in         in         in         in    10^6 gal      CFS
  ------------------------------------------------------------------------------------------------------------------------------
  1                          3.20       0.00       0.00       1.44       1.43       0.32       1.75        0.48     4.26   0.547
  2                          3.20       0.00       0.00       2.14       0.79       0.26       1.05        0.29     2.53   0.329
  
  
  ****************************
  Subcatchment Washoff Summary
  ****************************
  
  ------------------------------------------------
                                 TSS          LEAD
  Subcatchment                   lbs           lbs
  ------------------------------------------------
  1                           58.043         0.012
  2                           75.285         0.015
  ------------------------------------------------
  System                     133.328         0.027
  
  
  ******************
  Node Depth Summary
  ******************
  
  ---------------------------------------------------------------------------------
                                 Average  Maximum  Maximum  Time of Max    Reported
                                   Depth    Depth      HGL   Occurrence   Max Depth
  Node                 Type         Feet     Feet     Feet  days hr:min        Feet
  ---------------------------------------------------------------------------------
  10                   JUNCTION     0.25     0.61   995.61     0  07:05        0.61
  13                   JUNCTION     0.00     0.00   995.00     0  00:00        0.00
  14                   JUNCTION     0.00     0.00   990.00     0  00:00        0.00
  15                   JUNCTION     0.00     0.00   987.00     0  00:00        0.00
  16                   JUNCTION     0.19     0.45   985.45     0  07:07        0.44
  17                   JUNCTION     0.18     0.42   980.42     0  07:08        0.42
  19                   JUNCTION     0.00     0.00  1010.00     0  00:00        0.00
  20                   JUNCTION     0.00     0.00  1005.00     0  00:00        0.00
  21                   JUNCTION     1.13     1.45   991.45     0  07:05        1.44
  22                   JUNCTION     0.32     0.84   987.84     0  07:06        0.84
  23                   JUNCTION     0.00     0.00   990.00     0  00:00        0.00
  24                   JUNCTION     0.19     0.45   984.45     0  07:07        0.45
  9                    JUNCTION     0.59     2.35   998.35     0  07:03        2.34
  18                   OUTFALL      0.18     0.42   975.42     0  07:08        0.42
  STOR-12              STORAGE     55.65    66.52  1007.48     0  07:01       66.51
  
  
  *******************
  Node Inflow Summary
  *******************
  
  -------------------------------------------------------------------------------------------------
                                  Maximum  Maximum                  Lateral       Total        Flow
                                  Lateral    Total  Time of Max      Inflow      Inflow     Balance
                                   Inflow   Inflow   Occurrence      Volume      Volume       Error
  Node                 Type           CFS      CFS  days hr:min    10^6 gal    10^6 gal     Percent
  -------------------------------------------------------------------------------------------------
  10                   JUNCTION      0.00     3.20     0  07:04           0       0.347       0.032
  13                   JUNCTION      0.00     0.00     0  00:00           0           0       0.000 gal
  14                   JUNCTION      0.00     0.00     0  00:00           0           0       0.000 gal
  15                   JUNCTION      0.00     0.00     0  00:00           0           0       0.000 gal
  16                   JUNCTION      0.00     3.20     0  07:06           0       0.347       0.013
  17                   JUNCTION      0.00     3.20     0  07:07           0       0.347       0.016
  19                   JUNCTION      0.00     0.00     0  00:00           0           0       0.000 gal
  20                   JUNCTION      0.00     0.00     0  00:00           0           0       0.000 gal
  21                   JUNCTION      0.00     3.20     0  07:05           0       0.347       0.215
  22                   JUNCTION      0.00     3.20     0  07:05           0       0.347      -0.003
  23                   JUNCTION      0.00     0.00     0  00:00           0           0       0.000 gal
  24                   JUNCTION      0.00     3.20     0  07:07           0       0.347      -0.008
  9                    JUNCTION      0.00     3.20     0  07:01           0       0.347      -0.042
  18                   OUTFALL       0.00     3.20     0  07:08           0       0.347       0.000
  STOR-12              STORAGE       6.79     6.79     0  04:00       0.759       0.759      -0.005
  
  
  **********************
  Node Surcharge Summary
  **********************
  
  No nodes were surcharged.
  
  
  *********************
  Node Flooding Summary
  *********************
  
  No nodes were flooded.
  
  
  **********************
  Storage Volume Summary
  **********************
  
  ------------------------------------------------------------------------------------------------
                         Average    Avg   Evap  Exfil     Maximum    Max    Time of Max    Maximum
                          Volume   Pcnt   Pcnt   Pcnt      Volume   Pcnt     Occurrence    Outflow
  Storage Unit          1000 ftł   Full   Loss   Loss    1000 ftł   Full    days hr:min        CFS
  ------------------------------------------------------------------------------------------------
  STOR-12                 55.646   75.2    0.0    0.0      66.517   89.8       0  07:01       3.20
  
  
  ***********************
  Outfall Loading Summary
  ***********************
  
  ---------------------------------------------------------------------------------------
                         Flow       Avg       Max       Total         Total         Total
                         Freq      Flow      Flow      Volume           TSS          LEAD
  Outfall Node           Pcnt       CFS       CFS    10^6 gal           lbs           lbs
  ---------------------------------------------------------------------------------------
  18                    82.48      1.17      3.20       0.347        59.706         0.012
  ---------------------------------------------------------------------------------------
  System                82.48      1.17      3.20       0.347        59.706         0.012
  
  
  ********************
  Link Flow Summary
  ********************
  
  -----------------------------------------------------------------------------
                                 Maximum  Time of Max   Maximum    Max/    Max/
                                  |Flow|   Occurrence   |Veloc|    Full    Full
  Link                 Type          CFS  days hr:min    ft/sec    Flow   Depth
  -----------------------------------------------------------------------------
  10                   CONDUIT      3.20     0  07:08      6.64    0.10    0.21
  11                   CONDUIT      0.00     0  00:00      0.00    0.00    0.00
  12                   CONDUIT      0.00     0  00:00      0.00    0.00    0.00
  13                   CONDUIT      0.00     0  00:00      0.00    0.00    0.15
  14                   CONDUIT      0.00     0  00:00      0.00    0.00    0.22
  15                   CONDUIT      3.20     0  07:07      6.09    0.11    0.22
  16                   CONDUIT      3.20     0  07:07      6.33    0.11    0.22
  4                    CONDUIT      0.00     0  00:00      0.00    0.00    0.00
  5                    CONDUIT      0.00     0  00:00      0.00    0.00    0.50
  6                    CONDUIT      3.20     0  07:05      6.36    0.69    0.61
  7                    CONDUIT      3.20     0  07:05      8.04    0.11    0.22
  CDT-11               CONDUIT      3.20     0  07:04      4.72    1.54    0.81
  WEIR-25              CONDUIT      3.20     0  07:06      5.98    0.98    0.64
  ORI-19               ORIFICE      2.08     0  07:01                      1.00
  WEIR-19              WEIR         1.12     0  07:01                      1.00
  
  
  ***************************
  Flow Classification Summary
  ***************************
  
  -------------------------------------------------------------------------------------
                      Adjusted    ---------- Fraction of Time in Flow Class ---------- 
                       /Actual         Up    Down  Sub   Sup   Up    Down  Norm  Inlet 
  Conduit               Length    Dry  Dry   Dry   Crit  Crit  Crit  Crit  Ltd   Ctrl  
  -------------------------------------------------------------------------------------
  10                      1.00   0.14  0.00  0.00  0.00  0.86  0.00  0.00  0.06  0.00
  11                      1.00   1.00  0.00  0.00  0.00  0.00  0.00  0.00  0.00  0.00
  12                      1.00   1.00  0.00  0.00  0.00  0.00  0.00  0.00  0.00  0.00
  13                      1.00   0.14  0.86  0.00  0.00  0.00  0.00  0.00  0.00  0.00
  14                      1.00   0.14  0.86  0.00  0.00  0.00  0.00  0.00  0.00  0.00
  15                      1.00   0.14  0.00  0.00  0.32  0.53  0.00  0.00  0.81  0.00
  16                      1.00   0.14  0.00  0.00  0.36  0.50  0.00  0.00  0.53  0.00
  4                       1.00   1.00  0.00  0.00  0.00  0.00  0.00  0.00  0.00  0.00
  5                       1.00   0.14  0.86  0.00  0.00  0.00  0.00  0.00  0.00  0.00
  6                       1.00   0.14  0.00  0.00  0.00  0.45  0.00  0.41  0.00  0.00
  7                       1.00   0.14  0.00  0.00  0.00  0.00  0.00  0.86  0.00  0.00
  CDT-11                  1.00   0.14  0.00  0.00  0.71  0.15  0.00  0.00  0.00  0.00
  WEIR-25                 1.00   0.14  0.00  0.00  0.15  0.71  0.00  0.00  0.00  0.00
  
  
  *************************
  Conduit Surcharge Summary
  *************************
  
  ----------------------------------------------------------------------------
                                                           Hours        Hours 
                         --------- Hours Full --------   Above Full   Capacity
  Conduit                Both Ends  Upstream  Dnstream   Normal Flow   Limited
  ----------------------------------------------------------------------------
  CDT-11                      0.01      2.29      0.01      2.50         0.01
  
  
  ***************************
  Link Pollutant Load Summary
  ***************************
  
  ------------------------------------------------
                                 TSS          LEAD
  Link                           lbs           lbs
  ------------------------------------------------
  10                          59.706         0.012
  11                           0.000         0.000
  12                           0.000         0.000
  13                           0.000         0.000
  14                           0.000         0.000
  15                          59.717         0.012
  16                          59.719         0.012
  4                            0.000         0.000
  5                            0.000         0.000
  6                           59.891         0.012
  7                           59.727         0.012
  CDT-11                      59.919         0.012
  WEIR-25                     59.727         0.012
  ORI-19                      46.531         0.009
  WEIR-19                     13.371         0.003
  

  Analysis begun on:  Tue Jun 23 20:54:52 2026
  Analysis ended on:  Tue Jun 23 20:54:52 2026
  Total elapsed time: < 1 sec