
  EPA STORM WATER MANAGEMENT MODEL - VERSION 5.2 (Build 5.2.4)
  ------------------------------------------------------------

  \ 
  WARNING 09: time series interval greater than recording interval for Rain Gage GAGE1
  
  ****************
  Analysis Options
  ****************
  Flow Units ............... CMS
  Process Models:
    Rainfall/Runoff ........ YES
    RDII ................... NO
    Snowmelt ............... NO
    Groundwater ............ YES
    Flow Routing ........... YES
    Ponding Allowed ........ NO
    Water Quality .......... NO
  Infiltration Method ...... GREEN_AMPT
  Flow Routing Method ...... DYNWAVE
  Surcharge Method ......... EXTRAN
  Starting Date ............ 06/30/1987 00:00:00
  Ending Date .............. 07/02/1987 12:00:00
  Antecedent Dry Days ...... 0.0
  Report Time Step ......... 00:05:00
  Wet Time Step ............ 00:15:00
  Dry Time Step ............ 23:00:00
  Routing Time Step ........ 30.00 sec
  Variable Time Step ....... YES
  Maximum Trials ........... 8
  Number of Threads ........ 1
  Head Tolerance ........... 0.001500 m
  
  
  ERROR 323: cannot open runoff interface file D:\SWMMandSoftware\swmm_crada_files\Other SWMM5 Files\RUNOFF30.INT.

  Analysis begun on:  Tue Jun 23 20:54:58 2026
  Analysis ended on:  Tue Jun 23 20:54:58 2026
  Total elapsed time: < 1 sec