
  EPA STORM WATER MANAGEMENT MODEL - VERSION 5.2 (Build 5.2.4)
  ------------------------------------------------------------

   SW 2 9 8 9 8 
  WARNING 09: time series interval greater than recording interval for Rain Gage GAGE1
  WARNING 09: time series interval greater than recording interval for Rain Gage GAGE2
  
  *************
  Element Count
  *************
  Number of rain gages ...... 2
  Number of subcatchments ... 4
  Number of nodes ........... 7
  Number of links ........... 6
  Number of pollutants ...... 0
  Number of land uses ....... 0
  
  
  ****************
  Raingage Summary
  ****************
                                                      Data       Recording
  Name                 Data Source                    Type       Interval 
  ------------------------------------------------------------------------
  GAGE1                RainSeries1                    VOLUME      15 min.
  GAGE2                RainSeries2                    VOLUME      15 min.
  
  
  ********************
  Subcatchment Summary
  ********************
  Name                       Area     Width   %Imperv    %Slope Rain Gage            Outlet              
  -----------------------------------------------------------------------------------------------------------
  S1                       300.00     10.00     10.00    0.1000 GAGE1                S4                  
  S2                       500.00     10.00     10.00    0.1000 GAGE2                3                   
  S3                       500.00     10.00     10.00    0.1000 GAGE2                6                   
  S4                       500.00     10.00     10.00    0.1000 GAGE1                1                   
  
  
  ************
  Node Summary
  ************
                                           Invert      Max.    Ponded    External
  Name                 Type                 Elev.     Depth      Area    Inflow  
  -------------------------------------------------------------------------------
  1                    JUNCTION             20.00     20.00       0.0
  2                    JUNCTION             10.00     20.00       0.0
  3                    JUNCTION             20.00     20.00       0.0
  4                    JUNCTION             10.00     20.00       0.0
  5                    JUNCTION             10.00     20.00       0.0
  6                    JUNCTION             20.00     20.00       0.0
  7                    OUTFALL               0.00     10.00       0.0
  
  
  ************
  Link Summary
  ************
  Name             From Node        To Node          Type            Length    %Slope Roughness
  ---------------------------------------------------------------------------------------------
  1                1                2                CONDUIT         2000.0    0.5000    0.0200
  2                2                7                CONDUIT         2000.0    0.5000    0.0200
  3                3                4                CONDUIT         2000.0    0.5000    0.0200
  4                4                7                CONDUIT         2000.0    0.5000    0.0200
  5                5                7                CONDUIT         2000.0    0.5000    0.0200
  6                6                5                CONDUIT         2000.0    0.5000    0.0200
  
  
  *********************
  Cross Section Summary
  *********************
                                        Full     Full     Hyd.     Max.   No. of     Full
  Conduit          Shape               Depth     Area     Rad.    Width  Barrels     Flow
  ---------------------------------------------------------------------------------------
  1                PARABOLIC           10.00   133.33     4.51    20.00        1  1911.56
  2                PARABOLIC           10.00   133.33     4.51    20.00        1  1911.56
  3                PARABOLIC           10.00   133.33     4.51    20.00        1  1911.56
  4                PARABOLIC           10.00   133.33     4.51    20.00        1  1911.56
  5                PARABOLIC           10.00   133.33     4.51    20.00        1  1911.56
  6                PARABOLIC           10.00   133.33     4.51    20.00        1  1911.56
  
  
  ****************
  Analysis Options
  ****************
  Flow Units ............... CFS
  Process Models:
    Rainfall/Runoff ........ YES
    RDII ................... NO
    Snowmelt ............... NO
    Groundwater ............ YES
    Flow Routing ........... YES
    Ponding Allowed ........ NO
    Water Quality .......... NO
  Infiltration Method ...... GREEN_AMPT
  Flow Routing Method ...... DYNWAVE
  Surcharge Method ......... EXTRAN
  Starting Date ............ 07/01/1987 00:00:00
  Ending Date .............. 07/02/1987 12:00:00
  Antecedent Dry Days ...... 0.0
  Report Time Step ......... 00:15:00
  Wet Time Step ............ 00:15:00
  Dry Time Step ............ 23:00:00
  Routing Time Step ........ 30.00 sec
  Variable Time Step ....... YES
  Maximum Trials ........... 8
  Number of Threads ........ 1
  Head Tolerance ........... 0.005000 ft
  
  
  ERROR 141: Outfall 7 has more than 1 inlet link or an outlet link.
  
  ERROR 145: Drainage system has no acceptable outlet nodes.

  Analysis begun on:  Tue Jun 23 20:54:58 2026
  Analysis ended on:  Tue Jun 23 20:54:58 2026
  Total elapsed time: < 1 sec