
  EPA STORM WATER MANAGEMENT MODEL - VERSION 5.2 (Build 5.2.4)
  ------------------------------------------------------------

  RUNOFF EXAMPLE 8  PARABOLIC CHANNELS  NO GROUNDWATER 
  SIMILAR TO RUNOFF EXAMPLE 1 - VERY LARGE/LONG CHANNELS 
  WARNING 09: time series interval greater than recording interval for Rain Gage GAGE1
  
  *************
  Element Count
  *************
  Number of rain gages ...... 1
  Number of subcatchments ... 4
  Number of nodes ........... 7
  Number of links ........... 6
  Number of pollutants ...... 0
  Number of land uses ....... 0
  
  
  ****************
  Raingage Summary
  ****************
                                                      Data       Recording
  Name                 Data Source                    Type       Interval 
  ------------------------------------------------------------------------
  GAGE1                RainSeries1                    VOLUME      15 min.
  
  
  ********************
  Subcatchment Summary
  ********************
  Name                       Area     Width   %Imperv    %Slope Rain Gage            Outlet              
  -----------------------------------------------------------------------------------------------------------
  1                        300.00     10.00      1.00    0.1000 GAGE1                gutter1             
  2                        500.00     10.00      1.00    0.1000 GAGE1                gutter3             
  3                        500.00     10.00      1.00    0.1000 GAGE1                gutter6             
  4                        500.00     10.00      1.00    0.1000 GAGE1                gutter5             
  
  
  ************
  Node Summary
  ************
                                           Invert      Max.    Ponded    External
  Name                 Type                 Elev.     Depth      Area    Inflow  
  -------------------------------------------------------------------------------
  gutter1              JUNCTION            200.00     10.00       0.0
  gutter2              JUNCTION            100.00     10.00       0.0
  gutter3              JUNCTION            200.00     10.00       0.0
  gutter4              JUNCTION            100.00     10.00       0.0
  gutter5              JUNCTION            100.00     10.00       0.0
  gutter6              JUNCTION            200.00     10.00       0.0
  7                    OUTFALL               0.00     10.00       0.0
  
  
  ************
  Link Summary
  ************
  Name             From Node        To Node          Type            Length    %Slope Roughness
  ---------------------------------------------------------------------------------------------
  1                gutter1          gutter2          CONDUIT        20000.0    0.5000    0.0200
  2                gutter2          7                CONDUIT        20000.0    0.5000    0.0200
  3                gutter3          gutter4          CONDUIT        20000.0    0.5000    0.0200
  4                gutter4          7                CONDUIT        20000.0    0.5000    0.0200
  5                gutter5          7                CONDUIT        20000.0    0.5000    0.0200
  6                gutter6          gutter5          CONDUIT        20000.0    0.5000    0.0200
  
  
  *********************
  Cross Section Summary
  *********************
                                        Full     Full     Hyd.     Max.   No. of     Full
  Conduit          Shape               Depth     Area     Rad.    Width  Barrels     Flow
  ---------------------------------------------------------------------------------------
  1                PARABOLIC           10.00   800.00     6.55   120.00        1 14709.94
  2                PARABOLIC           10.00   800.00     6.55   120.00        1 14709.94
  3                PARABOLIC           10.00   800.00     6.55   120.00        1 14709.94
  4                PARABOLIC           10.00   800.00     6.55   120.00        1 14709.94
  5                PARABOLIC           10.00   800.00     6.55   120.00        1 14709.94
  6                PARABOLIC           10.00   800.00     6.55   120.00        1 14709.94
  
  
  ****************
  Analysis Options
  ****************
  Flow Units ............... CFS
  Process Models:
    Rainfall/Runoff ........ YES
    RDII ................... NO
    Snowmelt ............... NO
    Groundwater ............ NO
    Flow Routing ........... YES
    Ponding Allowed ........ NO
    Water Quality .......... NO
  Infiltration Method ...... GREEN_AMPT
  Flow Routing Method ...... DYNWAVE
  Surcharge Method ......... EXTRAN
  Starting Date ............ 07/01/1987 00:00:00
  Ending Date .............. 07/02/1987 12:00:00
  Antecedent Dry Days ...... 0.0
  Report Time Step ......... 00:15:00
  Wet Time Step ............ 00:05:00
  Dry Time Step ............ 23:59:59
  Routing Time Step ........ 30.00 sec
  Variable Time Step ....... YES
  Maximum Trials ........... 8
  Number of Threads ........ 1
  Head Tolerance ........... 0.005000 ft
  
  
  ERROR 141: Outfall 7 has more than 1 inlet link or an outlet link.
  
  ERROR 145: Drainage system has no acceptable outlet nodes.

  Analysis begun on:  Tue Jun 23 20:54:58 2026
  Analysis ended on:  Tue Jun 23 20:54:58 2026
  Total elapsed time: < 1 sec