
  EPA STORM WATER MANAGEMENT MODEL - VERSION 5.2 (Build 5.2.4)
  ------------------------------------------------------------

   SW 1 0 1 
  WARNING 08: elevation drop exceeds length for Conduit 1050
  WARNING 08: elevation drop exceeds length for Conduit 1010
  WARNING 08: elevation drop exceeds length for Conduit 1030
  
  *************
  Element Count
  *************
  Number of rain gages ...... 1
  Number of subcatchments ... 15
  Number of nodes ........... 19
  Number of links ........... 16
  Number of pollutants ...... 0
  Number of land uses ....... 0
  
  
  ****************
  Raingage Summary
  ****************
                                                      Data       Recording
  Name                 Data Source                    Type       Interval 
  ------------------------------------------------------------------------
  GAGE1                RainSeries1                    VOLUME       5 min.
  
  
  ********************
  Subcatchment Summary
  ********************
  Name                       Area     Width   %Imperv    %Slope Rain Gage            Outlet              
  -----------------------------------------------------------------------------------------------------------
  200                        2.50    150.00     25.00   10.0000 GAGE1                2020                
  210                        2.40    230.00     20.00   10.0000 GAGE1                1030                
  220                        1.00     60.00     25.00   10.0000 GAGE1                1070                
  221                        0.90     90.00     20.00   10.0000 GAGE1                3010                
  222                        2.15    170.00     20.00   10.0000 GAGE1                1080                
  223                        0.83     80.00     25.00   10.0000 GAGE1                1060                
  230                        1.00     90.00     20.00   10.0000 GAGE1                5010                
  235                        0.23     60.00     50.00   10.0000 GAGE1                4030                
  236                        0.33    100.00     90.00   10.0000 GAGE1                4020                
  240                        1.68    100.00     30.00   10.0000 GAGE1                1050                
  250                        2.08    200.00     20.00   10.0000 GAGE1                1030                
  255                        0.70    220.00     90.00   10.0000 GAGE1                1010                
  260                        0.68    180.00     90.00   10.0000 GAGE1                1010                
  265                        0.40     50.00     90.00   10.0000 GAGE1                6030                
  266                        0.25     70.00     90.00   10.0000 GAGE1                6040                
  
  
  ************
  Node Summary
  ************
                                           Invert      Max.    Ponded    External
  Name                 Type                 Elev.     Depth      Area    Inflow  
  -------------------------------------------------------------------------------
  1050                 JUNCTION            100.00     20.00       0.0
  1010                 JUNCTION            100.00     20.00       0.0
  1030                 JUNCTION            100.00     20.00       0.0
  1060                 JUNCTION            102.45     20.00       0.0
  1070                 JUNCTION            106.72     20.00       0.0
  1080                 JUNCTION            111.37     20.00       0.0
  2010                 JUNCTION            102.85     20.00       0.0
  2020                 JUNCTION            105.00     20.00       0.0
  3010                 JUNCTION            110.72     20.00       0.0
  4010                 JUNCTION            102.20     20.00       0.0
  4020                 JUNCTION            108.12     20.00       0.0
  4030                 JUNCTION            112.02     20.00       0.0
  5010                 JUNCTION            106.20     20.00       0.0
  6020                 JUNCTION            108.27     20.00       0.0
  6030                 JUNCTION            116.37     20.00       0.0
  6040                 JUNCTION            117.87     20.00       0.0
  1046                 JUNCTION              0.00      4.00       0.0
  1009                 JUNCTION              0.00      4.00       0.0
  1029                 OUTFALL               0.00      4.00       0.0
  
  
  ************
  Link Summary
  ************
  Name             From Node        To Node          Type            Length    %Slope Roughness
  ---------------------------------------------------------------------------------------------
  1050             1050             1046             CONDUIT          100.0  100.0000    0.0120
  1010             1010             1009             CONDUIT          100.0  100.0000    0.0120
  1030             1030             1029             CONDUIT          100.0  100.0000    0.0120
  1060             1060             1050             CONDUIT           72.0    3.4047    0.0200
  1070             1070             1060             CONDUIT           75.0    5.7026    0.0200
  1080             1080             1070             CONDUIT           62.0    7.5212    0.0200
  2010             2010             1050             CONDUIT           57.0    5.0063    0.0200
  2020             2020             2010             CONDUIT           39.0    5.5212    0.0200
  3010             3010             1070             CONDUIT           50.0    8.0257    0.0200
  4010             4010             1050             CONDUIT           38.0    5.7992    0.0200
  4020             4020             4010             CONDUIT           51.0   11.6868    0.0200
  4030             4030             4020             CONDUIT           52.0    7.5212    0.0200
  5010             5010             4010             CONDUIT           74.0    5.4133    0.0200
  6020             6020             1010             CONDUIT           95.0    8.7384    0.0200
  6030             6030             6020             CONDUIT           90.0    9.0367    0.0200
  6040             6040             6030             CONDUIT           50.0    3.0014    0.0200
  
  
  *********************
  Cross Section Summary
  *********************
                                        Full     Full     Hyd.     Max.   No. of     Full
  Conduit          Shape               Depth     Area     Rad.    Width  Barrels     Flow
  ---------------------------------------------------------------------------------------
  1050             CIRCULAR             4.00    12.57     1.00     4.00        1  1047.37
  1010             CIRCULAR             4.00    12.57     1.00     4.00        1  1047.37
  1030             CIRCULAR             4.00    12.57     1.00     4.00        1  1047.37
  1060             CIRCULAR             0.38     0.11     0.09     0.38        1     0.22
  1070             CIRCULAR             0.31     0.08     0.08     0.31        1     0.16
  1080             CIRCULAR             0.31     0.08     0.08     0.31        1     0.19
  2010             CIRCULAR             0.38     0.11     0.09     0.38        1     0.26
  2020             CIRCULAR             0.31     0.08     0.08     0.31        1     0.16
  3010             CIRCULAR             0.23     0.04     0.06     0.23        1     0.09
  4010             CIRCULAR             0.23     0.04     0.06     0.23        1     0.07
  4020             CIRCULAR             0.23     0.04     0.06     0.23        1     0.11
  4030             CIRCULAR             0.23     0.04     0.06     0.23        1     0.08
  5010             CIRCULAR             0.23     0.04     0.06     0.23        1     0.07
  6020             CIRCULAR             0.23     0.04     0.06     0.23        1     0.09
  6030             CIRCULAR             0.23     0.04     0.06     0.23        1     0.09
  6040             CIRCULAR             0.23     0.04     0.06     0.23        1     0.05
  
  
  ****************
  Analysis Options
  ****************
  Flow Units ............... CMS
  Process Models:
    Rainfall/Runoff ........ YES
    RDII ................... NO
    Snowmelt ............... NO
    Groundwater ............ NO
    Flow Routing ........... YES
    Ponding Allowed ........ NO
    Water Quality .......... NO
  Infiltration Method ...... GREEN_AMPT
  Flow Routing Method ...... DYNWAVE
  Surcharge Method ......... EXTRAN
  Starting Date ............ 12/30/1988 14:10:00
  Ending Date .............. 12/30/1988 15:50:00
  Antecedent Dry Days ...... 0.0
  Report Time Step ......... 00:15:00
  Wet Time Step ............ 00:01:00
  Dry Time Step ............ 00:01:00
  Routing Time Step ........ 30.00 sec
  Variable Time Step ....... YES
  Maximum Trials ........... 8
  Number of Threads ........ 1
  Head Tolerance ........... 0.001524 m
  
  
  **************************        Volume         Depth
  Runoff Quantity Continuity     hectare-m            mm
  **************************     ---------       -------
  Total Precipitation ......         1.089        63.600
  Evaporation Loss .........         0.000         0.007
  Infiltration Loss ........         0.173        10.092
  Surface Runoff ...........         0.868        50.669
  Final Storage ............         0.049         2.882
  Continuity Error (%) .....        -0.078
  
  
  **************************        Volume        Volume
  Flow Routing Continuity        hectare-m      10^6 ltr
  **************************     ---------     ---------
  Dry Weather Inflow .......         0.000         0.000
  Wet Weather Inflow .......         0.867         8.672
  Groundwater Inflow .......         0.000         0.000
  RDII Inflow ..............         0.000         0.000
  External Inflow ..........         0.000         0.000
  External Outflow .........         0.224         2.240
  Flooding Loss ............         0.521         5.206
  Evaporation Loss .........         0.000         0.000
  Exfiltration Loss ........         0.000         0.000
  Initial Stored Volume ....         0.000         0.000
  Final Stored Volume ......         0.127         1.269
  Continuity Error (%) .....        -0.497
  
  
  ***************************
  Time-Step Critical Elements
  ***************************
  Link 4010 (90.36%)
  Link 2020 (7.99%)
  
  
  ********************************
  Highest Flow Instability Indexes
  ********************************
  Link 1030 (6)
  Link 6020 (4)
  Link 5010 (4)
  Link 6030 (4)
  Link 6040 (3)
  
  
  *********************************
  Most Frequent Nonconverging Nodes
  *********************************
  Node 1029 (78.37%)
  Node 2020 (58.38%)
  Node 4010 (56.65%)
  Node 2010 (54.21%)
  Node 4020 (53.69%)
  
  
  *************************
  Routing Time Step Summary
  *************************
  Minimum Time Step           :     0.56 sec
  Average Time Step           :     5.21 sec
  Maximum Time Step           :    30.00 sec
  % of Time in Steady State   :     0.00
  Average Iterations per Step :     7.12
  % of Steps Not Converging   :    78.37
  Time Step Frequencies       :
     30.000 - 13.228 sec      :     1.83 %
     13.228 -  5.833 sec      :    16.00 %
      5.833 -  2.572 sec      :    82.00 %
      2.572 -  1.134 sec      :     0.09 %
      1.134 -  0.500 sec      :     0.09 %
  
  
  ***************************
  Subcatchment Runoff Summary
  ***************************
  
  ------------------------------------------------------------------------------------------------------------------------------
                            Total      Total      Total      Total     Imperv       Perv      Total       Total     Peak  Runoff
                           Precip      Runon       Evap      Infil     Runoff     Runoff     Runoff      Runoff   Runoff   Coeff
  Subcatchment                 mm         mm         mm         mm         mm         mm         mm    10^6 ltr      CMS
  ------------------------------------------------------------------------------------------------------------------------------
  200                       63.60       0.00       0.01      11.24      15.61      32.72      48.32        1.21     0.44   0.760
  210                       63.60       0.00       0.01      11.92      12.58      36.46      49.04        1.18     0.46   0.771
  220                       63.60       0.00       0.01      11.24      15.61      32.72      48.32        0.48     0.18   0.760
  221                       63.60       0.00       0.01      11.92      12.59      36.59      49.18        0.44     0.17   0.773
  222                       63.60       0.00       0.01      11.95      12.56      35.78      48.35        1.04     0.39   0.760
  223                       63.60       0.00       0.01      11.17      15.70      34.38      50.08        0.42     0.16   0.787
  230                       63.60       0.00       0.01      11.93      12.58      36.25      48.83        0.49     0.19   0.768
  235                       63.60       0.00       0.01       7.36      31.48      24.42      55.90        0.13     0.06   0.879
  236                       63.60       0.00       0.01       1.35      56.44       5.02      61.47        0.20     0.10   0.966
  240                       63.60       0.00       0.01      10.48      18.66      30.78      49.44        0.83     0.31   0.777
  250                       63.60       0.00       0.01      11.92      12.58      36.47      49.05        1.02     0.40   0.771
  255                       63.60       0.00       0.01       1.35      56.47       5.03      61.49        0.43     0.21   0.967
  260                       63.60       0.00       0.01       1.35      56.35       5.02      61.37        0.42     0.20   0.965
  265                       63.60       0.00       0.01       1.40      55.48       4.97      60.45        0.24     0.11   0.950
  266                       63.60       0.00       0.01       1.35      56.39       5.02      61.41        0.15     0.07   0.966
  
  
  ******************
  Node Depth Summary
  ******************
  
  ---------------------------------------------------------------------------------
                                 Average  Maximum  Maximum  Time of Max    Reported
                                   Depth    Depth      HGL   Occurrence   Max Depth
  Node                 Type       Meters   Meters   Meters  days hr:min      Meters
  ---------------------------------------------------------------------------------
  1050                 JUNCTION     0.09     0.11   100.11     0  00:35        0.10
  1010                 JUNCTION     0.04     0.07   100.07     0  00:25        0.06
  1030                 JUNCTION     0.06     0.09   100.09     0  00:35        0.08
  1060                 JUNCTION     9.43    13.58   116.03     0  00:25       12.41
  1070                 JUNCTION    16.26    20.00   126.72     0  00:17       20.00
  1080                 JUNCTION    15.97    20.00   131.37     0  00:18       20.00
  2010                 JUNCTION     3.28     9.02   111.87     0  00:36        6.54
  2020                 JUNCTION     7.49    20.00   125.00     0  00:24       14.66
  3010                 JUNCTION    15.87    20.00   130.72     0  00:18       20.00
  4010                 JUNCTION    12.16    19.41   121.61     0  00:17       17.85
  4020                 JUNCTION    10.16    20.00   128.12     0  00:17       17.02
  4030                 JUNCTION     7.68    18.31   130.33     0  00:25       13.94
  5010                 JUNCTION    14.01    20.00   126.20     0  00:17       20.00
  6020                 JUNCTION     5.26    14.76   123.03     0  00:36       14.75
  6030                 JUNCTION     6.19    20.00   136.37     0  00:18       20.00
  6040                 JUNCTION     5.90    20.00   137.87     0  00:18       19.55
  1046                 JUNCTION     3.54     4.00     4.00     0  00:24        4.00
  1009                 JUNCTION     3.25     4.00     4.00     0  00:38        4.00
  1029                 OUTFALL      0.06     0.09     0.09     0  00:35        0.08
  
  
  *******************
  Node Inflow Summary
  *******************
  
  -------------------------------------------------------------------------------------------------
                                  Maximum  Maximum                  Lateral       Total        Flow
                                  Lateral    Total  Time of Max      Inflow      Inflow     Balance
                                   Inflow   Inflow   Occurrence      Volume      Volume       Error
  Node                 Type           CMS      CMS  days hr:min    10^6 ltr    10^6 ltr     Percent
  -------------------------------------------------------------------------------------------------
  1050                 JUNCTION     0.306    1.321     0  00:35        0.83        4.39      -0.031
  1010                 JUNCTION     0.403    0.525     0  00:25       0.846        1.21      -0.282
  1030                 JUNCTION     0.853    0.853     0  00:35         2.2         2.2      -1.977
  1060                 JUNCTION     0.162    0.421     0  00:35       0.415        1.67       0.199
  1070                 JUNCTION     0.176    0.452     0  00:35       0.483        1.63       0.118
  1080                 JUNCTION     0.393    0.393     0  00:35        1.04        1.04       0.069
  2010                 JUNCTION     0.000    0.399     0  00:35           0         1.2       0.121
  2020                 JUNCTION     0.441    0.441     0  00:35        1.21        1.21       0.100
  3010                 JUNCTION     0.173    0.173     0  00:35       0.442       0.442       0.095
  4010                 JUNCTION     0.000    0.195     0  00:35           0       0.697       0.156
  4020                 JUNCTION     0.097    0.160     0  00:25       0.203       0.331       0.129
  4030                 JUNCTION     0.064    0.064     0  00:25       0.128       0.129      -0.002
  5010                 JUNCTION     0.188    0.188     0  00:35       0.488       0.488       0.152
  6020                 JUNCTION     0.000    0.121     0  00:25           0       0.366       0.133
  6030                 JUNCTION     0.107    0.161     0  00:25       0.242       0.388       0.136
  6040                 JUNCTION     0.073    0.073     0  00:25       0.153       0.153       0.108
  1046                 JUNCTION     0.000    1.320     0  00:35           0        4.39       0.000
  1009                 JUNCTION     0.000    0.524     0  00:25           0        1.22       0.000
  1029                 OUTFALL      0.000    0.852     0  00:35           0        2.24       0.000
  
  
  **********************
  Node Surcharge Summary
  **********************
  
  Surcharging occurs when water rises above the top of the highest conduit.
  ---------------------------------------------------------------------
                                               Max. Height   Min. Depth
                                   Hours       Above Crown    Below Rim
  Node                 Type      Surcharged         Meters       Meters
  ---------------------------------------------------------------------
  1060                 JUNCTION        1.20         13.201        6.419
  1070                 JUNCTION        1.16         19.690        0.000
  1080                 JUNCTION        1.09         19.690        0.000
  2010                 JUNCTION        0.92          8.639       10.981
  2020                 JUNCTION        1.02         19.690        0.000
  3010                 JUNCTION        1.11         19.770        0.000
  4010                 JUNCTION        1.16         19.179        0.591
  4020                 JUNCTION        1.01         19.770        0.000
  4030                 JUNCTION        0.81         18.078        1.692
  5010                 JUNCTION        1.08         19.770        0.000
  6020                 JUNCTION        0.77         14.534        5.236
  6030                 JUNCTION        0.64         19.770        0.000
  6040                 JUNCTION        0.42         19.770        0.000
  1046                 JUNCTION        1.25          0.000        0.000
  1009                 JUNCTION        1.03          0.000        0.000
  
  
  *********************
  Node Flooding Summary
  *********************
  
  Flooding refers to all water that overflows a node, whether it ponds or not.
  --------------------------------------------------------------------------
                                                             Total   Maximum
                                 Maximum   Time of Max       Flood    Ponded
                        Hours       Rate    Occurrence      Volume     Depth
  Node                 Flooded       CMS   days hr:min    10^6 ltr    Meters
  --------------------------------------------------------------------------
  1070                    0.97     0.192      0  00:35       0.374     0.000
  1080                    0.86     0.205      0  00:35       0.245     0.000
  2020                    0.08     0.042      0  00:35       0.005     0.000
  3010                    0.74     0.085      0  00:35       0.088     0.000
  4020                    0.23     0.046      0  00:25       0.018     0.000
  5010                    0.62     0.107      0  00:35       0.102     0.000
  6030                    0.31     0.040      0  00:25       0.022     0.000
  6040                    0.21     0.019      0  00:25       0.007     0.000
  1046                    1.25     1.320      0  00:35       3.761     0.000
  1009                    1.03     0.306      0  01:10       0.581     0.000
  
  
  ***********************
  Outfall Loading Summary
  ***********************
  
  -----------------------------------------------------------
                         Flow       Avg       Max       Total
                         Freq      Flow      Flow      Volume
  Outfall Node           Pcnt       CMS       CMS    10^6 ltr
  -----------------------------------------------------------
  1029                  98.18     0.473     0.852       2.240
  -----------------------------------------------------------
  System                98.18     0.473     0.852       2.240
  
  
  ********************
  Link Flow Summary
  ********************
  
  -----------------------------------------------------------------------------
                                 Maximum  Time of Max   Maximum    Max/    Max/
                                  |Flow|   Occurrence   |Veloc|    Full    Full
  Link                 Type          CMS  days hr:min     m/sec    Flow   Depth
  -----------------------------------------------------------------------------
  1050                 CONDUIT     1.320     0  00:35      1.25    0.00    0.51
  1010                 CONDUIT     0.524     0  00:25      1.06    0.00    0.51
  1030                 CONDUIT     0.852     0  00:35    >50.00    0.00    0.02
  1060                 CONDUIT     0.421     0  00:35      5.49    1.93    0.64
  1070                 CONDUIT     0.299     0  01:04      3.97    1.83    1.00
  1080                 CONDUIT     0.188     0  00:22      2.49    1.00    1.00
  2010                 CONDUIT     0.399     0  00:35      5.21    1.51    0.64
  2020                 CONDUIT     0.399     0  00:35      5.28    2.47    1.00
  3010                 CONDUIT     0.088     0  00:19      2.11    1.00    1.00
  4010                 CONDUIT     0.195     0  00:35      6.14    2.61    0.73
  4020                 CONDUIT     0.114     0  00:35      2.74    1.08    1.00
  4030                 CONDUIT     0.064     0  00:25      1.53    0.75    1.00
  5010                 CONDUIT     0.114     0  00:41      2.74    1.58    1.00
  6020                 CONDUIT     0.121     0  00:25      4.36    1.32    0.65
  6030                 CONDUIT     0.121     0  00:25      2.92    1.30    1.00
  6040                 CONDUIT     0.054     0  00:21      1.30    1.00    1.00
  
  
  ***************************
  Flow Classification Summary
  ***************************
  
  -------------------------------------------------------------------------------------
                      Adjusted    ---------- Fraction of Time in Flow Class ---------- 
                       /Actual         Up    Down  Sub   Sup   Up    Down  Norm  Inlet 
  Conduit               Length    Dry  Dry   Dry   Crit  Crit  Crit  Crit  Ltd   Ctrl  
  -------------------------------------------------------------------------------------
  1050                    1.00   0.01  0.01  0.00  0.94  0.05  0.00  0.00  0.99  0.00
  1010                    1.00   0.01  0.00  0.00  0.94  0.06  0.00  0.00  0.99  0.00
  1030                    1.00   0.06  0.00  0.00  0.06  0.88  0.00  0.00  0.69  0.00
  1060                    1.00   0.01  0.00  0.00  0.05  0.95  0.00  0.00  0.04  0.00
  1070                    1.00   0.01  0.00  0.00  0.76  0.23  0.00  0.00  0.27  0.00
  1080                    1.00   0.01  0.00  0.00  0.73  0.27  0.00  0.00  0.29  0.00
  2010                    1.00   0.01  0.02  0.00  0.04  0.94  0.00  0.00  0.05  0.00
  2020                    1.00   0.01  0.00  0.00  0.64  0.36  0.00  0.00  0.36  0.00
  3010                    1.00   0.01  0.00  0.00  0.92  0.07  0.00  0.00  0.29  0.00
  4010                    1.00   0.01  0.02  0.00  0.04  0.94  0.00  0.00  0.05  0.00
  4020                    1.00   0.01  0.00  0.00  0.87  0.13  0.00  0.00  0.31  0.00
  4030                    1.00   0.01  0.00  0.00  0.75  0.24  0.00  0.00  0.39  0.00
  5010                    1.00   0.01  0.00  0.00  0.75  0.24  0.00  0.00  0.29  0.00
  6020                    1.00   0.01  0.03  0.00  0.05  0.92  0.00  0.00  0.06  0.00
  6030                    1.00   0.01  0.00  0.00  0.45  0.55  0.00  0.00  0.52  0.00
  6040                    1.00   0.01  0.00  0.00  0.71  0.29  0.00  0.00  0.60  0.00
  
  
  *************************
  Conduit Surcharge Summary
  *************************
  
  ----------------------------------------------------------------------------
                                                           Hours        Hours 
                         --------- Hours Full --------   Above Full   Capacity
  Conduit                Both Ends  Upstream  Dnstream   Normal Flow   Limited
  ----------------------------------------------------------------------------
  1050                        0.01      0.01      1.25      0.01         0.01
  1010                        0.01      0.01      1.03      0.01         0.01
  1060                        0.01      1.20      0.01      1.11         0.01
  1070                        1.16      1.16      1.23      1.15         1.15
  1080                        1.09      1.09      1.16      0.01         0.01
  2010                        0.01      0.92      0.01      0.63         0.01
  2020                        1.00      1.02      1.00      1.04         1.00
  3010                        1.11      1.11      1.20      0.01         0.01
  4010                        0.01      1.16      0.01      1.13         0.01
  4020                        1.01      1.01      1.16      0.27         0.27
  4030                        0.81      0.81      1.01      0.01         0.01
  5010                        1.07      1.07      1.16      0.98         0.99
  6020                        0.01      0.77      0.01      0.36         0.01
  6030                        0.64      0.64      0.77      0.36         0.36
  6040                        0.42      0.42      0.64      0.01         0.01
  

  Analysis begun on:  Tue Jun 23 20:54:58 2026
  Analysis ended on:  Tue Jun 23 20:54:58 2026
  Total elapsed time: < 1 sec