
  EPA STORM WATER MANAGEMENT MODEL - VERSION 5.2 (Build 5.2.4)
  ------------------------------------------------------------

  Scenario Run :  EXPORTEDLID 
  WARNING 04: minimum elevation drop used for Conduit 1
  WARNING 04: minimum elevation drop used for Conduit 2
  WARNING 04: minimum elevation drop used for Conduit 3
  WARNING 04: minimum elevation drop used for Conduit 5
  WARNING 04: minimum elevation drop used for Conduit 7
  
  ****************
  Analysis Options
  ****************
  Flow Units ............... CFS
  Process Models:
    Rainfall/Runoff ........ YES
    RDII ................... NO
    Snowmelt ............... NO
    Groundwater ............ NO
    Flow Routing ........... YES
    Ponding Allowed ........ NO
    Water Quality .......... YES
  Infiltration Method ...... GREEN_AMPT
  Flow Routing Method ...... DYNWAVE
  Surcharge Method ......... EXTRAN
  Starting Date ............ 01/01/2002 00:00:00
  Ending Date .............. 01/01/2002 08:00:00
  Antecedent Dry Days ...... 5.0
  Report Time Step ......... 00:05:00
  Wet Time Step ............ 00:01:00
  Dry Time Step ............ 01:00:00
  Routing Time Step ........ 10.00 sec
  Variable Time Step ....... YES
  Maximum Trials ........... 8
  Number of Threads ........ 1
  Head Tolerance ........... 0.000100 ft
  
  
  **************************        Volume         Depth
  Runoff Quantity Continuity     acre-feet        inches
  **************************     ---------       -------
  Initial LID Storage ......         1.570         0.025
  Total Precipitation ......       178.916         2.899
  Evaporation Loss .........         0.849         0.014
  Infiltration Loss ........       156.996         2.544
  Surface Runoff ...........         3.152         0.051
  Final Storage ............        19.490         0.316
  Continuity Error (%) .....        -0.000
  
  
  **************************           TSS            TP
  Runoff Quality Continuity            lbs           lbs
  **************************    ----------    ----------
  Initial Buildup ..........         0.000         0.000
  Surface Buildup ..........       618.589        24.744
  Wet Deposition ...........      2431.000        48.620
  Sweeping Removal .........         0.000         0.000
  Infiltration Loss ........      2006.778        40.644
  BMP Removal ..............      1258.269        36.404
  Surface Runoff ...........        65.739         1.927
  Remaining Buildup ........        48.001         0.965
  Continuity Error (%) .....       -10.795        -8.965
  
  
  **************************        Volume        Volume
  Flow Routing Continuity        acre-feet      10^6 gal
  **************************     ---------     ---------
  Dry Weather Inflow .......         0.907         0.295
  Wet Weather Inflow .......         3.150         1.026
  Groundwater Inflow .......         0.000         0.000
  RDII Inflow ..............         0.000         0.000
  External Inflow ..........         0.000         0.000
  External Outflow .........         3.939         1.284
  Flooding Loss ............         0.000         0.000
  Evaporation Loss .........         0.000         0.000
  Exfiltration Loss ........         0.006         0.002
  Initial Stored Volume ....         0.000         0.000
  Final Stored Volume ......         0.045         0.015
  Continuity Error (%) .....         1.627
  
  
  **************************           TSS            TP
  Quality Routing Continuity           lbs           lbs
  **************************    ----------    ----------
  Dry Weather Inflow .......         0.000         0.000
  Wet Weather Inflow .......        65.694         1.926
  Groundwater Inflow .......         0.000         0.000
  RDII Inflow ..............         0.000         0.000
  External Inflow ..........         0.000         0.000
  External Outflow .........        65.395         1.922
  Flooding Loss ............         0.000         0.000
  Exfiltration Loss ........         0.066         0.002
  Mass Reacted .............         0.000         0.000
  Initial Stored Mass ......         0.000         0.000
  Final Stored Mass ........         0.366         0.010
  Continuity Error (%) .....        -0.204        -0.448
  
  
  *************************
  Highest Continuity Errors
  *************************
  Node D (2.55%)
  
  
  ***************************
  Time-Step Critical Elements
  ***************************
  Link 1 (12.67%)
  
  
  ********************************
  Highest Flow Instability Indexes
  ********************************
  Link 5 (9)
  Link 2 (6)
  Link 1 (5)
  Link 7 (4)
  Link 3 (1)
  
  
  *********************************
  Most Frequent Nonconverging Nodes
  *********************************
  Node OUTFALL (1.88%)
  Node C (1.61%)
  Node B (1.54%)
  Node A (0.31%)
  Node D (0.10%)
  
  
  *************************
  Routing Time Step Summary
  *************************
  Minimum Time Step           :     1.30 sec
  Average Time Step           :     9.86 sec
  Maximum Time Step           :    10.00 sec
  % of Time in Steady State   :     0.00
  Average Iterations per Step :     2.39
  % of Steps Not Converging   :     1.88
  Time Step Frequencies       :
     10.000 -  1.585 sec      :    99.97 %
      1.585 -  0.251 sec      :     0.03 %
      0.251 -  0.040 sec      :     0.00 %
      0.040 -  0.006 sec      :     0.00 %
      0.006 -  0.001 sec      :     0.00 %
  
  
  ***************************
  Subcatchment Runoff Summary
  ***************************
  
  ------------------------------------------------------------------------------------------------------------------------------
                            Total      Total      Total      Total     Imperv       Perv      Total       Total     Peak  Runoff
                           Precip      Runon       Evap      Infil     Runoff     Runoff     Runoff      Runoff   Runoff   Coeff
  Subcatchment                 in         in         in         in         in         in         in    10^6 gal      CFS
  ------------------------------------------------------------------------------------------------------------------------------
  1                          2.90       0.00       0.02       2.26       0.73       0.07       0.11        0.23     6.73   0.036
  10                         2.90       0.00       0.02       2.35       1.20       0.05       0.22        0.26     5.80   0.077
  2                          2.90       0.21       0.02       2.54       0.52       0.11       0.25        0.27     6.88   0.080
  3                          2.90       0.00       0.01       2.81       0.08       0.01       0.08        0.09     4.81   0.028
  4                          2.90       0.00       0.01       2.49       0.44       0.01       0.21        0.21     8.09   0.072
  5                          2.90       0.07       0.01       2.66       0.33       0.01       0.04        0.06     2.73   0.015
  6                          2.90       0.11       0.01       2.54       0.71       0.02       0.05        0.11     4.36   0.016
  7                          2.90       0.00       0.02       2.58       0.84       0.00       0.03        0.19     4.28   0.011
  8                          2.90       0.06       0.01       2.60       0.56       0.02       0.13        0.40    14.22   0.044
  9                          2.90       0.25       0.01       2.66       0.63       0.08       0.23        0.24     7.83   0.072
  

  ***********************
  LID Performance Summary
  ***********************

  --------------------------------------------------------------------------------------------------------------------
                                         Total      Evap     Infil   Surface    Drain    Initial     Final  Continuity
                                        Inflow      Loss      Loss   Outflow   Outflow   Storage   Storage       Error
  Subcatchment      LID Control             in        in        in        in        in        in        in           %
  --------------------------------------------------------------------------------------------------------------------
  1                 GREENROOF             9.43      0.02      0.00      4.21      0.76      1.20      5.64        0.03
  1                 TRENCH               45.33      0.02      3.71     18.87     13.21      0.00      9.53       -0.01
  10                TRENCH               46.41      0.02      3.70     20.07     12.99      0.00      9.63       -0.01
  10                GREENROOF_2         220.47      0.03      0.00    214.48      2.14      0.90      4.73       -0.00
  2                 TRENCH                5.35      0.00      3.51      0.00      0.00      0.00      1.84       -0.07
  2                 GREENROOF_4           6.98      0.01      0.00      2.46      0.40      1.50      5.61        0.04
  4                 TRENCH                5.64      0.00      3.56      0.00      0.00      0.00      2.08       -0.06
  4                 GREENROOF_6           3.55      0.01      0.00      1.06      2.18      0.10      0.41       -0.01
  5                 GREENROOF_9           3.79      0.00      0.00      0.67      0.19      1.50      4.42        0.04
  5                 TRENCH                8.70      0.00      3.66      0.00      2.48      0.00      2.56       -0.01
  6                 GREENROOF_11         28.79      0.03      0.00     23.92      2.81      0.50      2.53       -0.00
  6                 TRENCH                7.37      0.00      3.58      0.00      1.31      0.00      2.48       -0.03
  7                 GREENROOF_13         11.07      0.02      0.00      7.00      2.68      0.30      1.66       -0.00
  7                 TRENCH               39.21      0.02      3.67     13.71     12.27      0.00      9.55       -0.02
  8                 GREENROOF_15         13.66      0.03      0.00      8.44      2.13      0.70      3.77       -0.00
  8                 TRENCH                7.55      0.00      3.61      0.00      1.44      0.00      2.50       -0.02
  9                 TRENCH                8.90      0.00      3.65      0.00      2.69      0.00      2.57       -0.01
  9                 GREENROOF_16          6.37      0.01      0.00      2.26      2.19      0.50      2.42       -0.02
  
  ****************************
  Subcatchment Washoff Summary
  ****************************
  
  ------------------------------------------------
                                 TSS            TP
  Subcatchment                   lbs           lbs
  ------------------------------------------------
  1                           14.254         0.410
  10                          17.254         0.513
  2                           15.819         0.442
  3                            6.205         0.186
  4                           12.388         0.342
  5                            3.294         0.090
  6                            6.604         0.185
  7                           11.686         0.338
  8                           28.326         0.876
  9                           15.128         0.435
  ------------------------------------------------
  System                     130.957         3.818
  
  
  ******************
  Node Depth Summary
  ******************
  
  ---------------------------------------------------------------------------------
                                 Average  Maximum  Maximum  Time of Max    Reported
                                   Depth    Depth      HGL   Occurrence   Max Depth
  Node                 Type         Feet     Feet     Feet  days hr:min        Feet
  ---------------------------------------------------------------------------------
  A                    JUNCTION     1.36     2.76   252.46     0  03:38        2.75
  B                    JUNCTION     1.37     2.78   252.48     0  03:38        2.77
  C                    JUNCTION     1.38     2.78   252.48     0  03:38        2.77
  E                    JUNCTION     0.10     0.26   312.89     0  03:35        0.26
  F                    JUNCTION     1.38     2.78   252.49     0  03:38        2.77
  G                    JUNCTION     0.15     0.44   330.62     0  03:30        0.43
  OUTFALL              OUTFALL      0.72     1.83   251.53     0  03:38        1.82
  D                    STORAGE      1.38     2.78   252.49     0  03:37        2.77
  
  
  *******************
  Node Inflow Summary
  *******************
  
  -------------------------------------------------------------------------------------------------
                                  Maximum  Maximum                  Lateral       Total        Flow
                                  Lateral    Total  Time of Max      Inflow      Inflow     Balance
                                   Inflow   Inflow   Occurrence      Volume      Volume       Error
  Node                 Type           CFS      CFS  days hr:min    10^6 gal    10^6 gal     Percent
  -------------------------------------------------------------------------------------------------
  A                    JUNCTION     14.22    31.06     0  03:37       0.401        1.29       0.396
  B                    JUNCTION      0.00    19.63     0  03:38           0       0.891       0.252
  C                    JUNCTION      0.00    19.63     0  03:38           0       0.893       0.290
  E                    JUNCTION      7.44     7.44     0  03:30       0.317       0.317       0.124
  F                    JUNCTION      0.00     0.48     0  03:25           0     0.00411      35.888
  G                    JUNCTION     16.38    16.38     0  03:30       0.604       0.604       0.066
  OUTFALL              OUTFALL       0.00    30.93     0  03:38           0        1.28       0.000
  D                    STORAGE       0.00    23.42     0  03:30           0       0.923       2.619
  
  
  **********************
  Node Surcharge Summary
  **********************
  
  No nodes were surcharged.
  
  
  *********************
  Node Flooding Summary
  *********************
  
  No nodes were flooded.
  
  
  **********************
  Storage Volume Summary
  **********************
  
  ------------------------------------------------------------------------------------------------
                         Average    Avg   Evap  Exfil     Maximum    Max    Time of Max    Maximum
                          Volume   Pcnt   Pcnt   Pcnt      Volume   Pcnt     Occurrence    Outflow
  Storage Unit          1000 ftł   Full   Loss   Loss    1000 ftł   Full    days hr:min        CFS
  ------------------------------------------------------------------------------------------------
  D                        0.138   27.5    0.0    0.1       0.278   55.6       0  03:37      19.64
  
  
  ***********************
  Outfall Loading Summary
  ***********************
  
  ---------------------------------------------------------------------------------------
                         Flow       Avg       Max       Total         Total         Total
                         Freq      Flow      Flow      Volume           TSS            TP
  Outfall Node           Pcnt       CFS       CFS    10^6 gal           lbs           lbs
  ---------------------------------------------------------------------------------------
  OUTFALL               98.94      6.27     30.93       1.283        65.401         1.923
  ---------------------------------------------------------------------------------------
  System                98.94      6.27     30.93       1.283        65.401         1.923
  
  
  ********************
  Link Flow Summary
  ********************
  
  -----------------------------------------------------------------------------
                                 Maximum  Time of Max   Maximum    Max/    Max/
                                  |Flow|   Occurrence   |Veloc|    Full    Full
  Link                 Type          CFS  days hr:min    ft/sec    Flow   Depth
  -----------------------------------------------------------------------------
  1                    CONDUIT     19.66     0  03:39      1.91    0.97    0.55
  2                    CONDUIT     19.63     0  03:38      2.46    0.41    0.56
  3                    CONDUIT     30.93     0  03:38      4.09    4.24    0.46
  4                    CONDUIT      7.38     0  03:35     32.96    0.00    0.30
  5                    CONDUIT      0.48     0  03:25      0.72    0.03    0.56
  6                    CONDUIT     16.19     0  03:30     27.86    0.01    0.32
  7                    CONDUIT     19.63     0  03:38      3.56    0.20    0.56
  
  
  ***************************
  Flow Classification Summary
  ***************************
  
  -------------------------------------------------------------------------------------
                      Adjusted    ---------- Fraction of Time in Flow Class ---------- 
                       /Actual         Up    Down  Sub   Sup   Up    Down  Norm  Inlet 
  Conduit               Length    Dry  Dry   Dry   Crit  Crit  Crit  Crit  Ltd   Ctrl  
  -------------------------------------------------------------------------------------
  1                       1.88   0.00  0.00  0.00  1.00  0.00  0.00  0.00  0.00  0.00
  2                      11.17   0.00  0.00  0.00  1.00  0.00  0.00  0.00  0.00  0.00
  3                       1.00   0.01  0.00  0.00  0.99  0.00  0.00  0.00  0.00  0.00
  4                       7.45   0.00  0.00  0.00  0.98  0.02  0.00  0.00  1.00  0.00
  5                       1.00   0.00  0.00  0.00  1.00  0.00  0.00  0.00  0.00  0.00
  6                       4.45   0.00  0.00  0.00  0.98  0.02  0.00  0.00  1.00  0.00
  7                      55.47   0.00  0.00  0.00  0.99  0.01  0.00  0.00  0.00  0.00
  
  
  *************************
  Conduit Surcharge Summary
  *************************
  
  ----------------------------------------------------------------------------
                                                           Hours        Hours 
                         --------- Hours Full --------   Above Full   Capacity
  Conduit                Both Ends  Upstream  Dnstream   Normal Flow   Limited
  ----------------------------------------------------------------------------
  3                           0.01      0.01      0.01      1.34         0.01
  
  
  ***************************
  Link Pollutant Load Summary
  ***************************
  
  ------------------------------------------------
                                 TSS            TP
  Link                           lbs           lbs
  ------------------------------------------------
  1                           37.268         1.053
  2                           37.309         1.054
  3                           65.401         1.923
  4                            9.894         0.274
  5                            0.241         0.007
  6                           27.465         0.775
  7                           37.313         1.053
  

  Analysis begun on:  Tue Jun 23 20:55:26 2026
  Analysis ended on:  Tue Jun 23 20:55:26 2026
  Total elapsed time: < 1 sec