
  EPA STORM WATER MANAGEMENT MODEL - VERSION 5.2 (Build 5.2.4)
  ------------------------------------------------------------

  
  ERROR 235: invalid infiltration parameters at line 128 of [INFIL] section:
  Haus1            3.0        0.5        4         

  
  ERROR 235: invalid infiltration parameters at line 129 of [INFIL] section:
  Haus2            3.0        0.5        4         

  
  ERROR 235: invalid infiltration parameters at line 130 of [INFIL] section:
  Haus3            3.0        0.5        4         

  
  ERROR 235: invalid infiltration parameters at line 131 of [INFIL] section:
  Haus4            3.0        0.5        4         

  
  ERROR 235: invalid infiltration parameters at line 132 of [INFIL] section:
  Haus5            3          0.5        4         

  
  ERROR 235: invalid infiltration parameters at line 133 of [INFIL] section:
  Haus6            3.0        0.5        4         

  
  ERROR 235: invalid infiltration parameters at line 134 of [INFIL] section:
  Haus7            3.0        0.5        4         

  
  ERROR 235: invalid infiltration parameters at line 135 of [INFIL] section:
  Hauptstrasse     3.0        0.5        4         

  
  ERROR 235: invalid infiltration parameters at line 136 of [INFIL] section:
  Energieallee1    120        15         4         

  
  ERROR 235: invalid infiltration parameters at line 137 of [INFIL] section:
  Energieallee2    3.0        0.5        4         

  
  ERROR 235: invalid infiltration parameters at line 139 of [INFIL] section:
  Energieallee4    3.0        0.5        4         

  
  ERROR 235: invalid infiltration parameters at line 141 of [INFIL] section:
  Hauptenergieallee 3.0        0.5        4         

  
  ERROR 235: invalid infiltration parameters at line 142 of [INFIL] section:
  Befestigt1       3.0        0.5        4         

  
  ERROR 235: invalid infiltration parameters at line 143 of [INFIL] section:
  Befestigt2       3.0        0.5        4         

  
  ERROR 235: invalid infiltration parameters at line 144 of [INFIL] section:
  Befestigt3       3.0        0.5        4         

  
  ERROR 235: invalid infiltration parameters at line 145 of [INFIL] section:
  Befestigt4       3.0        0.5        4         

  
  ERROR 235: invalid infiltration parameters at line 146 of [INFIL] section:
  Befestigt5       3.0        0.5        4         

  
  ERROR 235: invalid infiltration parameters at line 147 of [INFIL] section:
  Befestigt6       3.0        0.5        4         

  
  ERROR 235: invalid infiltration parameters at line 148 of [INFIL] section:
  Befestigt7       3.0        0.5        4         

  
  ERROR 235: invalid infiltration parameters at line 149 of [INFIL] section:
  Grauwasser1      3.0        0.5        4         

  
  ERROR 235: invalid infiltration parameters at line 150 of [INFIL] section:
  Grauwasser2      3.0        0.5        4         

  
  ERROR 235: invalid infiltration parameters at line 151 of [INFIL] section:
  Grauwasser3      3.0        0.5        4         

  
  ERROR 235: invalid infiltration parameters at line 152 of [INFIL] section:
  Grauwasser4      3.0        0.5        4         

  
  ERROR 235: invalid infiltration parameters at line 153 of [INFIL] section:
  Grauwasser5      3.0        0.5        4         

  
  ERROR 235: invalid infiltration parameters at line 154 of [INFIL] section:
  Grauwasser6      3.0        0.5        4         

  
  ERROR 235: invalid infiltration parameters at line 155 of [INFIL] section:
  Grauwasser7      3.0        0.5        4         


  Analysis begun on:  Tue Jun 23 20:55:26 2026
  Analysis ended on:  Tue Jun 23 20:55:26 2026
  Total elapsed time: < 1 sec