
  EPA STORM WATER MANAGEMENT MODEL - VERSION 5.2 (Build 5.2.4)
  ------------------------------------------------------------

  WARNING 04: minimum elevation drop used for Conduit 619
  WARNING 08: elevation drop exceeds length for Conduit 1563
  WARNING 04: minimum elevation drop used for Conduit 1607
  WARNING 03: negative offset ignored for Link Allston
  WARNING 03: negative offset ignored for Link Allston
  WARNING 08: elevation drop exceeds length for Conduit Allston
  
  *************
  Element Count
  *************
  Number of rain gages ...... 1
  Number of subcatchments ... 92
  Number of nodes ........... 662
  Number of links ........... 679
  Number of pollutants ...... 0
  Number of land uses ....... 0
  
  
  ****************
  Raingage Summary
  ****************
                                                      Data       Recording
  Name                 Data Source                    Type       Interval 
  ------------------------------------------------------------------------
  1                    MyStorm                        INTENSITY   60 min.
  
  
  ********************
  Subcatchment Summary
  ********************
  Name                       Area     Width   %Imperv    %Slope Rain Gage            Outlet              
  -----------------------------------------------------------------------------------------------------------
  H103#1                     8.40    283.10     25.00    1.5000 1                    H103                
  H85#1                      8.40    490.70     30.00   10.0000 1                    H85                 
  H96#1                     26.80    648.90     25.00    1.6000 1                    H96                 
  H189#1                    24.60    670.00     30.00   10.0000 1                    H189                
  H165#1                     9.60    320.00     30.00   10.0000 1                    H165                
  H107#1                    19.80    540.00     30.00   10.0000 1                    H107                
  I87#1                     33.80    736.00     30.00   10.0000 1                    I87                 
  L33#1                      4.40    480.00     25.00   10.0000 1                    L33                 
  L40#1                      7.30    640.00     30.00   10.0000 1                    L40                 
  M63#1                     19.80    480.00     40.00   10.0000 1                    M63                 
  I10A#1                     9.90    540.00     25.00    0.4000 1                    I10A                
  I36#1                      9.90    540.00     30.00   10.0000 1                    I36                 
  L76#1                     11.80    320.00     25.00  100.0000 1                    L76                 
  X27#1                      8.10    370.50     30.00    1.8000 1                    X27                 
  E90#1                     18.70    453.30     25.00    0.2000 1                    E90                 
  K12#1                     12.10    440.00     30.00    5.2000 1                    K12                 
  K8#1                      14.00    506.70     25.00    5.0000 1                    K8                  
  M49#1                      9.60    462.20     30.00   10.0000 1                    M49                 
  Z158#1                    28.30    560.00     25.00    1.0000 1                    Z158                
  H72#1                     10.30    560.00     30.00   10.0000 1                    H72                 
  I111#1                     4.80    346.70     30.00   10.0000 1                    I111                
  I22#1                      5.90    320.00     30.00   10.0000 1                    I22                 
  L47#1                     13.20    576.00     30.00   10.0000 1                    L47                 
  X57#1                     16.50    300.00     30.00    0.1000 1                    X57                 
  Z148#1                     8.10    220.00     25.00   10.0000 1                    Z148                
  J36#1                     18.00    490.00     25.00   10.0000 1                    J36                 
  J27#1                     25.00    836.90     25.00    0.9000 1                    J27                 
  J13#1                     18.40    615.40     30.00    0.9000 1                    J13                 
  J6#1                      13.20    443.10     20.00    1.5000 1                    J6                  
  X35#1                      9.20    363.60     30.00    0.2000 1                    X35                 
  L88#1                      7.70    560.00     20.00    0.2000 1                    L88                 
  I4#1                      20.20    488.90     30.00   10.0000 1                    I4                  
  I31#1                      3.70    114.30     25.00   10.0000 1                    I31                 
  H4#1                       6.60    160.00     30.00   10.0000 1                    H4                  
  H45#1                     15.80    688.00     35.00   10.0000 1                    H45                 
  H7#1                      37.80    749.10     30.00    0.4000 1                    H7                  
  H28#1                      5.90    512.00     30.00    0.1000 1                    H28                 
  H31#1                     14.30    693.30     35.00    0.3000 1                    H31                 
  H59#1                     39.30    713.30     30.00   10.0000 1                    H59                 
  I55#1                     29.80   1296.00     25.00   10.0000 1                    I55                 
  I81#1                     11.80    568.90     30.00   10.0000 1                    I81                 
  K14#1                      4.40    480.00     25.00    2.6000 1                    K14                 
  K25#1                      9.20    285.70     30.00    2.7000 1                    K25                 
  X47#1                      7.70    560.00     20.00   10.0000 1                    X47                 
  X82#1                     10.30    289.70     20.00   10.0000 1                    X82                 
  X78A#1                     9.60    297.10     20.00    0.1000 1                    X78A                
  X77#1                     10.30    248.90     25.00    0.5000 1                    X77                 
  L32A#1                     4.80    346.70     25.00   10.0000 1                    L32A                
  L35#1                     10.70    580.00     30.00   10.0000 1                    L35                 
  H172#1                    30.60    577.40     30.00   10.0000 1                    H172                
  L4#1                       6.20    388.60     30.00   10.0000 1                    L4                  
  I21#1                     16.50    600.00     25.00    0.7000 1                    I21                 
  Y10#1                      4.00    251.40     25.00    1.0000 1                    Y10                 
  L1AA#1                     1.10    120.00     20.00   10.0000 1                    L1AA                
  DD65#1                     5.00     10.00     20.00    1.0000 1                    DD65                
  E21#1                     85.00    850.00     30.00    3.6000 1                    E21                 
  F88#1                    110.00   1050.00     30.00    3.6000 1                    F88                 
  C12#1                     13.00    900.00     30.00    5.0000 1                    C12                 
  C99#1                     30.50   3800.00     40.00   20.0000 1                    C99                 
  C103#1                    19.50   2500.00     35.00   10.0000 1                    C103                
  C132#1                    18.00    900.00     20.00   14.0000 1                    C132                
  C42#1                     18.00    800.00     20.00   21.0000 1                    C42                 
  C52#1                     14.00    750.00     25.00    5.0000 1                    C52                 
  F76#1                     90.00    950.00     30.00    3.6000 1                    F76                 
  F29#1                     28.50    360.00     20.00    0.1000 1                    F29                 
  F17#1                     19.50    400.00     20.00    0.1000 1                    F17                 
  F45#1                     14.00    180.00     20.00    0.7000 1                    F45                 
  H213#1                     5.00     60.00     25.00    0.3000 1                    H213                
  H209#1                     4.00     60.00     25.00    0.2000 1                    H209                
  H198#1                     5.00     70.00     25.00    0.4000 1                    H198                
  H143#1                     3.00     25.00     25.00    0.1000 1                    H143                
  F110#1                     3.60    370.00     32.00   10.0000 1                    F110                
  G135#1                     5.00    100.00     20.00    1.0000 1                    G135                
  C58#1                      5.00    600.00     20.00    3.0000 1                    C58                 
  C61#1                      6.00    625.00     25.00    7.0000 1                    C61                 
  C66#1                      7.00    550.00     30.00    7.0000 1                    C66                 
  C158#1                    17.50    800.00     20.00   12.0000 1                    C158                
  C116#1                    10.00    550.00     25.00    1.0000 1                    C116                
  C112#1                    10.00    550.00     20.00    1.0000 1                    C112                
  C17#1                      4.00    625.00     25.00    5.0000 1                    C17                 
  F91#1                      4.60    570.00     32.00    8.0000 1                    F91                 
  F86#1                     10.50   4000.00    100.00   20.0000 1                    F86                 
  L116#1                     8.50    115.00     30.00    2.0000 1                    L116                
  H156#1                     2.00     80.00     25.00    0.5000 1                    H156                
  F14#1                     16.30    165.00     20.00    1.2000 1                    F14                 
  C28#1                     15.00    160.00     20.00    4.8000 1                    C28                 
  C179#1                     8.40    160.00     20.00    1.8000 1                    C179                
  C186#1                    11.40    451.10     25.00    1.4000 1                    C186                
  C185#1                     8.80    180.00     20.00    4.3000 1                    C185                
  C222#1                     5.20    120.00     25.00   10.0000 1                    C222                
  O71#1                      4.00     40.00     20.00    1.0000 1                    O71                 
  O2#1                       3.00     40.00     20.00    1.0000 1                    O2                  
  
  
  ************
  Node Summary
  ************
                                           Invert      Max.    Ponded    External
  Name                 Type                 Elev.     Depth      Area    Inflow  
  -------------------------------------------------------------------------------
  Q94                  JUNCTION            874.20     15.80       0.0    Yes
  Q91                  JUNCTION            870.09     19.01       0.0
  Q89                  JUNCTION            867.95     21.55       0.0    Yes
  Q83                  JUNCTION            864.74     13.06       0.0    Yes
  Q77                  JUNCTION            863.60     13.30       0.0
  Q74                  JUNCTION            861.80     16.80       0.0    Yes
  Q70                  JUNCTION            859.48     16.52       0.0    Yes
  Q1                   JUNCTION            856.65     10.85       0.0
  P136                 JUNCTION            853.28     18.52       0.0    Yes
  Q7                   JUNCTION            861.97     23.03       0.0
  Q5                   JUNCTION            860.50     22.00       0.0    Yes
  H103                 JUNCTION            838.89      4.10       0.0    Yes
  H94                  JUNCTION            837.20      9.30       0.0
  H85                  JUNCTION            828.94      9.85       0.0    Yes
  H99                  JUNCTION            840.73      7.05       0.0
  H96                  JUNCTION            838.16     10.10       0.0    Yes
  H189                 JUNCTION            855.22      5.78       0.0    Yes
  H169                 JUNCTION            847.95     13.00       0.0
  H165                 JUNCTION            841.80     11.44       0.0    Yes
  H153                 JUNCTION            834.00      8.00       0.0
  H107                 JUNCTION            824.51     10.05       0.0    Yes
  I84                  JUNCTION            826.46      7.20       0.0
  H149                 JUNCTION            830.47      4.89       0.0
  H146                 JUNCTION            827.84     10.02       0.0
  I97                  JUNCTION            835.07     12.40       0.0
  I87                  JUNCTION            830.86     14.40       0.0    Yes
  L134                 JUNCTION            873.08      8.27       0.0
  L129                 JUNCTION            856.13      9.52       0.0
  L120                 JUNCTION            846.85     10.92       0.0
  L33                  JUNCTION            818.49      6.08       0.0    Yes
  L40                  JUNCTION            815.08      8.17       0.0    Yes
  M72                  JUNCTION            859.93     12.00       0.0
  M63                  JUNCTION            854.27     10.00       0.0    Yes
  H238                 JUNCTION            871.85      4.96       0.0
  L131                 JUNCTION            866.37     11.67       0.0
  L41                  JUNCTION            812.12      9.88       0.0
  L43                  JUNCTION            810.86     13.10       0.0
  L2                   JUNCTION            809.00     12.65       0.0
  I23                  JUNCTION            818.55      8.16       0.0    Yes
  I14                  JUNCTION            815.91      8.33       0.0
  I10A                 JUNCTION            811.46      8.85       0.0    Yes
  I36                  JUNCTION            810.46      5.15       0.0    Yes
  L1A                  JUNCTION            807.63      8.03       0.0
  Y2                   JUNCTION            807.13     10.47       0.0
  Y5                   JUNCTION            806.31     10.29       0.0
  Y11                  JUNCTION            805.77      9.59       0.0
  L53                  JUNCTION            812.70     11.76       0.0
  L76                  JUNCTION            845.19     10.51       0.0    Yes
  L54                  JUNCTION            815.19     10.36       0.0    Yes
  E139                 JUNCTION            810.59     21.51       0.0
  E136                 JUNCTION            809.49     15.21       0.0
  E134                 JUNCTION            808.76     14.35       0.0    Yes
  E131                 JUNCTION            807.92     13.68       0.0
  E129                 JUNCTION            807.20     15.10       0.0
  E128                 JUNCTION            806.75     14.35       0.0
  E126                 JUNCTION            806.27     19.13       0.0
  E125                 JUNCTION            806.03     16.97       0.0
  E104                 JUNCTION            804.29     12.41       0.0
  L101                 JUNCTION            818.33      7.24       0.0
  L95                  JUNCTION            817.30      5.90       0.0
  X27                  JUNCTION            815.64      7.42       0.0    Yes
  X25                  JUNCTION            814.84      4.02       0.0
  X20                  JUNCTION            812.99      9.77       0.0    Yes
  X18                  JUNCTION            812.31     15.95       0.0
  X17                  JUNCTION            812.19     16.06       0.0
  X12                  JUNCTION            812.01     14.95       0.0
  X7                   JUNCTION            811.28     15.38       0.0    Yes
  X3                   JUNCTION            809.21      9.55       0.0
  X98                  JUNCTION            835.78      8.48       0.0    Yes
  X95                  JUNCTION            817.26      8.50       0.0
  Y1                   JUNCTION            808.62     13.57       0.0
  Z6                   JUNCTION            817.95     11.69       0.0    Yes
  E79A                 JUNCTION            802.00      9.80       0.0
  E70                  JUNCTION            800.75      8.50       0.0
  E90                  JUNCTION            804.61      8.89       0.0    Yes
  E78                  JUNCTION            803.95     10.55       0.0    Yes
  I1                   JUNCTION            803.96      6.65       0.0
  E117                 JUNCTION            804.96      5.40       0.0
  E115                 JUNCTION            804.36      9.00       0.0
  E114                 JUNCTION            803.76      9.20       0.0
  E111                 JUNCTION            803.10      9.20       0.0
  E120                 JUNCTION            804.62      8.27       0.0
  K13                  JUNCTION            845.75      8.40       0.0
  K12                  JUNCTION            835.65     10.00       0.0    Yes
  K3                   JUNCTION            827.01     12.44       0.0    Yes
  K1                   JUNCTION            809.20      6.30       0.0
  K8                   JUNCTION            849.65      8.70       0.0    Yes
  K4                   JUNCTION            828.65     10.20       0.0
  Z14                  JUNCTION            837.36     21.78       0.0
  Z11                  JUNCTION            835.39     14.25       0.0
  Z16                  JUNCTION            838.40     19.60       0.0
  Z19                  JUNCTION            840.61     18.03       0.0    Yes
  Z54                  JUNCTION            843.14     14.46       0.0    Yes
  T1                   JUNCTION            846.83      9.17       0.0    Yes
  Z72                  JUNCTION            845.68     10.53       0.0    Yes
  E141A                JUNCTION            811.37     17.33       0.0
  L108                 JUNCTION            824.64     12.73       0.0
  L107                 JUNCTION            823.37      2.80       0.0
  L105                 JUNCTION            821.61      4.06       0.0
  E144                 JUNCTION            812.50     25.90       0.0
  S34                  JUNCTION            834.95     17.65       0.0
  S36                  JUNCTION            834.04     17.06       0.0
  S40                  JUNCTION            830.68     12.22       0.0    Yes
  R1                   JUNCTION            830.12     13.28       0.0
  P6                   JUNCTION            825.75     16.75       0.0
  P92                  JUNCTION            846.29     23.41       0.0
  P51                  JUNCTION            842.26     11.74       0.0
  P17                  JUNCTION            833.70     20.30       0.0
  R5                   JUNCTION            847.83     10.17       0.0    Yes
  P53                  JUNCTION            851.93     13.87       0.0
  P56                  JUNCTION            857.02     10.48       0.0    Yes
  V1                   JUNCTION            816.31     23.79       0.0
  E145                 JUNCTION            814.58     21.42       0.0
  V8                   JUNCTION            843.80     15.10       0.0    Yes
  M56                  JUNCTION            849.38      8.80       0.0
  M39                  JUNCTION            843.20      8.18       0.0
  M2                   JUNCTION            841.21      9.14       0.0    Yes
  M1                   JUNCTION            830.00     12.68       0.0
  M49                  JUNCTION            852.63     10.52       0.0    Yes
  M41                  JUNCTION            849.82      9.42       0.0
  442                  JUNCTION            854.34      5.16       0.0
  443                  JUNCTION            853.00      8.20       0.0
  Q13                  JUNCTION            864.93     19.07       0.0    Yes
  Q8                   JUNCTION            862.83     19.07       0.0
  P100                 JUNCTION            852.05     18.45       0.0    Yes
  P96                  JUNCTION            847.42     17.25       0.0    Yes
  P167                 JUNCTION            850.79     11.21       0.0
  P170                 JUNCTION            849.36     14.64       0.0
  BB20                 JUNCTION            860.30     24.30       0.0
  BB16                 JUNCTION            857.90     29.10       0.0
  BB15                 JUNCTION            857.33     28.37       0.0    Yes
  S1                   JUNCTION            841.42     13.08       0.0
  S8                   JUNCTION            839.81     13.49       0.0
  S28                  JUNCTION            839.62     15.18       0.0    Yes
  S30                  JUNCTION            837.71     12.29       0.0
  S31                  JUNCTION            836.66     18.94       0.0
  S33                  JUNCTION            835.46     17.94       0.0    Yes
  S12                  JUNCTION            846.60     13.20       0.0
  S9                   JUNCTION            842.49      9.81       0.0
  S14                  JUNCTION            849.26     15.24       0.0    Yes
  S20                  JUNCTION            860.39      7.61       0.0    Yes
  S24                  JUNCTION            855.24      9.16       0.0
  S83                  JUNCTION            863.61      6.89       0.0
  S86                  JUNCTION            883.94      9.86       0.0
  S85                  JUNCTION            864.56      6.04       0.0
  STWTRPS              JUNCTION            798.10     21.90       0.0
  E61A                 JUNCTION            801.78      9.22       0.0
  E60                  JUNCTION            799.58      3.50       0.0
  H57                  JUNCTION            820.00      7.00       0.0
  H53                  JUNCTION            816.06     14.94       0.0
  H1                   JUNCTION            802.18      7.72       0.0
  H16                  JUNCTION            810.28     10.00       0.0    Yes
  H15                  JUNCTION            806.24      8.85       0.0
  H3                   JUNCTION            803.29      9.49       0.0    Yes
  E59                  JUNCTION            798.16     11.75       0.0
  E57                  JUNCTION            797.93     10.47       0.0
  J2                   JUNCTION            800.11     12.70       0.0
  J1                   JUNCTION            800.32      8.06       0.0
  E42                  JUNCTION            796.65     10.82       0.0
  E40                  JUNCTION            795.60     12.85       0.0
  E20                  JUNCTION            795.18     15.65       0.0
  E19A                 JUNCTION            795.05     15.85       0.0
  E13                  JUNCTION            793.50     12.50       0.0
  E5                   JUNCTION            791.58     10.79       0.0
  E4                   JUNCTION            791.31      8.69       0.0
  WWTP2                JUNCTION            790.32     15.18       0.0
  D50                  JUNCTION            801.24     10.20       0.0    Yes
  D1                   JUNCTION            794.84     14.60       0.0
  D7                   JUNCTION            796.04     13.20       0.0    Yes
  A31                  JUNCTION            794.77     14.93       0.0
  WWTP3                JUNCTION            790.72     14.28       0.0
  A48                  JUNCTION            801.22     13.78       0.0    Yes
  A26                  JUNCTION            816.51     26.29       0.0    Yes
  A2                   JUNCTION            884.30      4.60       0.0
  A3                   JUNCTION            888.00     13.50       0.0    Yes
  A4                   JUNCTION            885.97     16.93       0.0
  A6                   JUNCTION            870.90     10.40       0.0
  A10                  JUNCTION            827.50     18.00       0.0    Yes
  A20                  JUNCTION            824.31     16.39       0.0    Yes
  A23                  JUNCTION            823.59     16.41       0.0    Yes
  Z164                 JUNCTION            856.44      7.35       0.0    Yes
  Z158                 JUNCTION            852.59     10.00       0.0    Yes
  Z157A                JUNCTION            850.49      6.80       0.0
  Z156A                JUNCTION            845.40     12.80       0.0
  I98                  JUNCTION            836.05     12.40       0.0    Yes
  H72                  JUNCTION            822.97      8.92       0.0    Yes
  OF17                 JUNCTION            805.00      5.00       0.0
  OF18                 JUNCTION            814.00      6.00       0.0
  L6                   JUNCTION            808.30     11.28       0.0
  I111                 JUNCTION            823.00      3.00       0.0    Yes
  I22                  JUNCTION            822.13      3.05       0.0    Yes
  L44                  JUNCTION            811.64     10.06       0.0
  L47                  JUNCTION            827.09      9.03       0.0    Yes
  X23                  JUNCTION            814.20      5.66       0.0
  X57                  JUNCTION            857.66      9.51       0.0    Yes
  X49                  JUNCTION            838.65      8.31       0.0
  X41                  JUNCTION            835.60     10.00       0.0    Yes
  I1A                  JUNCTION            803.28      7.89       0.0
  E68                  JUNCTION            802.70      6.30       0.0
  Z147                 JUNCTION            837.62     17.92       0.0
  Z148                 JUNCTION            849.25      5.45       0.0    Yes
  H88                  JUNCTION            832.25     10.45       0.0
  H90                  JUNCTION            853.30      4.50       0.0
  J7                   JUNCTION            801.38      8.50       0.0
  J3                   JUNCTION            833.68     20.60       0.0
  J10                  JUNCTION            831.38      7.00       0.0
  J12                  JUNCTION            857.48     11.00       0.0
  J14                  JUNCTION            857.13      9.95       0.0
  J18                  JUNCTION            881.41     10.38       0.0
  J36                  JUNCTION            876.23      7.78       0.0    Yes
  J30                  JUNCTION            861.16      5.80       0.0
  J27                  JUNCTION            893.23      8.36       0.0    Yes
  J13                  JUNCTION            861.88     10.00       0.0    Yes
  J6                   JUNCTION            854.83     10.45       0.0    Yes
  X35                  JUNCTION            841.36      6.50       0.0    Yes
  L88                  JUNCTION            813.78      9.15       0.0    Yes
  L84                  JUNCTION            819.44      4.19       0.0
  E107                 JUNCTION            805.20     17.90       0.0
  S71                  JUNCTION            838.84     11.98       0.0
  BB1                  JUNCTION            847.30      9.40       0.0    Yes
  BB21                 JUNCTION            861.00     24.00       0.0
  BB24                 JUNCTION            863.45     20.45       0.0    Yes
  BB32                 JUNCTION            867.40     18.10       0.0    Yes
  BB29                 JUNCTION            865.83     20.07       0.0
  BB27                 JUNCTION            864.90     19.70       0.0
  BB40                 JUNCTION            870.17     10.68       0.0    Yes
  BB26                 JUNCTION            864.57     19.55       0.0
  AA13                 JUNCTION            850.98     15.32       0.0
  AA9                  JUNCTION            850.64      9.96       0.0
  AA2                  JUNCTION            849.34      9.16       0.0
  AA14                 JUNCTION            852.45     24.55       0.0    Yes
  AA18                 JUNCTION            855.55     17.77       0.0
  AA25                 JUNCTION            867.33     18.27       0.0
  AA22                 JUNCTION            864.75     22.59       0.0
  AA19                 JUNCTION            856.39     17.51       0.0    Yes
  AA84                 JUNCTION            856.50     26.60       0.0    Yes
  AA82                 JUNCTION            855.82     15.98       0.0
  AA52                 JUNCTION            871.60     17.60       0.0
  AA42                 JUNCTION            870.99     17.11       0.0    Yes
  AA37                 JUNCTION            869.70     18.60       0.0
  AA51                 JUNCTION            873.91      8.69       0.0
  AA49                 JUNCTION            873.35      9.65       0.0
  AA48                 JUNCTION            873.16     11.84       0.0
  AA46                 JUNCTION            872.70     11.80       0.0    Yes
  AA44                 JUNCTION            871.98     14.82       0.0
  AA89                 JUNCTION            858.11     20.89       0.0
  AA87                 JUNCTION            857.71     24.89       0.0
  AA55                 JUNCTION            873.89     10.21       0.0
  AA53                 JUNCTION            872.30     15.35       0.0
  AA123                JUNCTION            877.33     10.20       0.0
  AA122                JUNCTION            876.48      9.48       0.0
  AA118                JUNCTION            875.54     12.15       0.0
  AA105                JUNCTION            874.02     13.14       0.0    Yes
  AA148                JUNCTION            866.21     12.79       0.0
  AA147                JUNCTION            865.24     11.01       0.0
  AA145                JUNCTION            861.95      9.80       0.0
  AA144                JUNCTION            861.05      8.95       0.0
  AA90                 JUNCTION            859.10     25.16       0.0    Yes
  CVPS                 JUNCTION            870.00     10.00       0.0
  AA58                 JUNCTION            874.48     12.32       0.0    Yes
  AA57                 JUNCTION            874.22     10.28       0.0
  AA20                 JUNCTION            857.05     17.95       0.0    Yes
  I9                   JUNCTION            815.36      6.54       0.0    Yes
  I8                   JUNCTION            813.75      7.25       0.0
  I4                   JUNCTION            807.45      4.33       0.0    Yes
  I35                  JUNCTION            809.27      7.21       0.0    Yes
  I32                  JUNCTION            805.88      5.80       0.0
  I29                  JUNCTION            804.60      6.10       0.0
  I114A                JUNCTION            809.00      3.00       0.0
  I31                  JUNCTION            806.00      5.00       0.0    Yes
  H4                   JUNCTION            803.97      9.51       0.0    Yes
  H5                   JUNCTION            804.80      8.16       0.0    Yes
  H47                  JUNCTION            819.56      7.86       0.0    Yes
  H45                  JUNCTION            818.83     11.56       0.0    Yes
  H44                  JUNCTION            820.10     10.40       0.0
  H49                  JUNCTION            820.95      5.50       0.0    Yes
  H40                  JUNCTION            814.31      9.69       0.0    Yes
  H36                  JUNCTION            813.26     19.84       0.0
  H29                  JUNCTION            811.08     16.52       0.0    Yes
  H23                  JUNCTION            807.17     12.53       0.0
  H26                  JUNCTION            804.30      9.70       0.0
  H8                   JUNCTION            804.03      8.97       0.0
  H9                   JUNCTION            803.62      8.68       0.0
  H7                   JUNCTION            802.91      8.09       0.0    Yes
  H6                   JUNCTION            804.00      8.00       0.0    Yes
  H227                 JUNCTION            804.66      4.27       0.0
  H28                  JUNCTION            807.90      5.80       0.0    Yes
  H21                  JUNCTION            819.00      5.00       0.0
  H34                  JUNCTION            823.92     10.08       0.0    Yes
  H31                  JUNCTION            815.52     13.48       0.0    Yes
  H275                 JUNCTION            812.50     15.50       0.0
  H38                  JUNCTION            819.91     10.30       0.0
  F117                 JUNCTION            821.10      4.90       0.0
  H65                  JUNCTION            821.40      9.55       0.0
  H60                  JUNCTION            821.00      9.00       0.0
  H59                  JUNCTION            820.90     11.10       0.0    Yes
  H58                  JUNCTION            824.50      5.78       0.0
  H68                  JUNCTION            826.10      6.55       0.0    Yes
  H69                  JUNCTION            823.68      5.50       0.0    Yes
  I55                  JUNCTION            820.20     11.37       0.0    Yes
  I56                  JUNCTION            820.71     12.23       0.0
  I81                  JUNCTION            840.00      4.00       0.0    Yes
  I70                  JUNCTION            825.36     10.20       0.0
  I69                  JUNCTION            824.49     11.29       0.0
  I72                  JUNCTION            834.00      6.97       0.0    Yes
  I64                  JUNCTION            822.57     11.18       0.0
  I67                  JUNCTION            834.12      7.45       0.0
  I65                  JUNCTION            827.05      6.70       0.0
  I86                  JUNCTION            827.50      8.65       0.0
  I90                  JUNCTION            836.39      6.88       0.0
  I113                 JUNCTION            838.50      7.50       0.0
  I101                 JUNCTION            835.99     10.05       0.0    Yes
  H112                 JUNCTION            826.00      4.00       0.0
  H108                 JUNCTION            825.05      4.55       0.0
  H114                 JUNCTION            826.50      4.06       0.0    Yes
  H113                 JUNCTION            826.00      4.00       0.0
  K14                  JUNCTION            856.04      7.75       0.0    Yes
  K25                  JUNCTION            869.72      8.40       0.0    Yes
  Z153                 JUNCTION            854.50      8.00       0.0
  Z146                 JUNCTION            850.00      6.37       0.0
  Z151                 JUNCTION            856.74      2.45       0.0    Yes
  X47                  JUNCTION            832.32      9.28       0.0    Yes
  X45                  JUNCTION            814.31     15.57       0.0
  X87                  JUNCTION            848.00     10.80       0.0
  X86                  JUNCTION            846.76     10.00       0.0    Yes
  X82                  JUNCTION            841.00      8.34       0.0    Yes
  X83                  JUNCTION            842.00      8.00       0.0
  X88                  JUNCTION            848.34      9.27       0.0
  X78A                 JUNCTION            854.50      3.50       0.0    Yes
  X70                  JUNCTION            851.71      5.17       0.0    Yes
  X77                  JUNCTION            858.55      6.83       0.0    Yes
  L5                   JUNCTION            810.13     14.63       0.0
  L14                  JUNCTION            821.76     10.00       0.0    Yes
  L12                  JUNCTION            813.76      9.30       0.0
  L18                  JUNCTION            820.76      5.80       0.0    Yes
  Q6                   JUNCTION            861.50     22.30       0.0    Yes
  Q40                  JUNCTION            870.57     16.33       0.0    Yes
  Q37                  JUNCTION            868.99     13.41       0.0
  Q30                  JUNCTION            867.99     18.31       0.0    Yes
  L117                 JUNCTION            846.68      8.65       0.0    Yes
  L87                  JUNCTION            819.85      4.50       0.0    Yes
  L135                 JUNCTION            820.23      4.60       0.0
  L29                  JUNCTION            834.00      5.19       0.0    Yes
  L32A                 JUNCTION            820.81      4.48       0.0    Yes
  I99                  JUNCTION            836.95      4.48       0.0
  L37                  JUNCTION            832.31      7.82       0.0
  L35                  JUNCTION            831.66      8.10       0.0    Yes
  L38                  JUNCTION            834.20      7.00       0.0
  V16                  JUNCTION            848.80     16.50       0.0    Yes
  V12                  JUNCTION            845.47     10.23       0.0
  M58                  JUNCTION            854.95      9.22       0.0
  M5                   JUNCTION            842.70      7.88       0.0    Yes
  M4                   JUNCTION            842.60      7.40       0.0
  P31                  JUNCTION            858.32      9.25       0.0
  P28                  JUNCTION            848.00      8.70       0.0    Yes
  P30                  JUNCTION            859.00      8.90       0.0    Yes
  P76                  JUNCTION            887.00      7.30       0.0    Yes
  P69                  JUNCTION            883.45      6.55       0.0    Yes
  P64                  JUNCTION            869.60      9.40       0.0
  P63                  JUNCTION            862.64     12.36       0.0    Yes
  S88                  JUNCTION            891.51     13.69       0.0
  S87                  JUNCTION            890.85      8.25       0.0
  H175                 JUNCTION            852.67      4.30       0.0
  H172                 JUNCTION            850.86      8.60       0.0    Yes
  H248                 JUNCTION            851.70      7.03       0.0
  B22                  JUNCTION            873.33     13.42       0.0    Yes
  B18                  JUNCTION            872.35     22.47       0.0    Yes
  B13                  JUNCTION            871.47     14.53       0.0    Yes
  B11                  JUNCTION            869.63     21.07       0.0
  A1                   JUNCTION            860.40     28.20       0.0    Yes
  AA41                 JUNCTION            870.39     17.41       0.0
  Anomatic             JUNCTION            871.50     16.50       0.0    Yes
  L4                   JUNCTION            809.75     12.75       0.0    Yes
  B.Linen              JUNCTION            811.00     12.00       0.0    Yes
  C.Cleaners           JUNCTION            819.50      6.50       0.0    Yes
  A37                  JUNCTION            797.48     13.02       0.0
  Components           JUNCTION            798.00     13.00       0.0    Yes
  D.Products           JUNCTION            868.50     17.50       0.0    Yes
  BoxUsa               JUNCTION            874.50     11.50       0.0    Yes
  TamrakDary           JUNCTION            875.00      8.00       0.0    Yes
  OrganicTeK           JUNCTION            875.00      8.00       0.0    Yes
  U.Veneer             JUNCTION            874.50      8.70       0.0    Yes
  Tennaco              JUNCTION            843.60     16.40       0.0    Yes
  Hospital             JUNCTION            862.50     22.70       0.0    Yes
  M.PowerWsh           JUNCTION            847.20      9.80       0.0    Yes
  N.ElctPltg           JUNCTION            805.00      5.00       0.0    Yes
  N.MedLab             JUNCTION            847.80      9.20       0.0    Yes
  OSU~#2               JUNCTION            848.00     12.00       0.0    Yes
  OSU~#1               JUNCTION            853.00     13.00       0.0    Yes
  Rockwell             JUNCTION            837.00     13.00       0.0    Yes
  I21                  JUNCTION            817.67      6.64       0.0    Yes
  Tectum               JUNCTION            817.20      9.80       0.0    Yes
  P139                 JUNCTION            857.53     18.47       0.0
  Y10                  JUNCTION            808.70      8.30       0.0    Yes
  L1AA                 JUNCTION            807.70     13.92       0.0    Yes
  W49                  JUNCTION            817.44     11.46       0.0    Yes
  W9                   JUNCTION            816.73     15.42       0.0    Yes
  X33                  JUNCTION            838.51     10.65       0.0
  X38                  JUNCTION            837.17      8.79       0.0    Yes
  cso16a               JUNCTION            849.06      6.49       0.0
  Z8                   JUNCTION            829.63     15.21       0.0
  E73                  JUNCTION            803.37      7.63       0.0
  E71                  JUNCTION            801.90     10.10       0.0
  P1                   JUNCTION            817.75     13.75       0.0
  X46                  JUNCTION            826.45      6.70       0.0
  X1                   JUNCTION            808.60     12.76       0.0
  Y5A                  JUNCTION            808.59      8.11       0.0
  L53A                 JUNCTION            816.81      7.69       0.0
  L44A                 JUNCTION            813.72      8.08       0.0
  L41A                 JUNCTION            814.60      7.50       0.0
  1623                 JUNCTION            818.00      5.47       0.0
  L1                   JUNCTION            814.50      6.55       0.0
  L5A                  JUNCTION            812.10     12.40       0.0
  I15                  JUNCTION            816.86     10.05       0.0
  H18                  JUNCTION            813.75      8.05       0.0
  H13                  JUNCTION            804.48      9.80       0.0
  E43                  JUNCTION            797.24      8.02       0.0
  E60A                 JUNCTION            800.20     15.80       0.0
  E63                  JUNCTION            803.32      4.18       0.0
  E67                  JUNCTION            802.09      6.91       0.0
  E69                  JUNCTION            801.53      7.47       0.0
  K1A                  JUNCTION            806.04      9.96       0.0
  X36                  JUNCTION            815.10     16.90       0.0
  X23A                 JUNCTION            816.30      3.60       0.0
  DD93                 JUNCTION            867.25     11.75       0.0
  DD92                 JUNCTION            856.07      9.63       0.0    Yes
  DD88                 JUNCTION            854.71     16.29       0.0
  DD84                 JUNCTION            852.00     12.90       0.0
  DD83                 JUNCTION            851.52     12.78       0.0
  DD82                 JUNCTION            849.63     12.97       0.0
  DD81                 JUNCTION            848.82     15.38       0.0
  DD78                 JUNCTION            845.93     16.87       0.0
  DD75                 JUNCTION            843.58     15.52       0.0
  DD69                 JUNCTION            841.35     17.05       0.0
  DD68                 JUNCTION            840.85     16.05       0.0
  DD66                 JUNCTION            840.00     19.00       0.0
  DD65                 JUNCTION            838.06     18.54       0.0    Yes
  DD41                 JUNCTION            835.45     20.55       0.0    Yes
  DD39                 JUNCTION            833.40     20.60       0.0
  DD20                 JUNCTION            832.83     23.17       0.0    Yes
  DD58                 JUNCTION            844.10     23.90       0.0    Yes
  DD8                  JUNCTION            823.37     18.63       0.0
  DD5                  JUNCTION            821.48     20.52       0.0    Yes
  DD1                  JUNCTION            819.00     17.00       0.0    Yes
  CC16                 JUNCTION            814.77     15.33       0.0
  CC10                 JUNCTION            811.27     17.33       0.0
  CC5                  JUNCTION            809.39     15.11       0.0
  CC2                  JUNCTION            807.64     13.66       0.0
  F142                 JUNCTION            805.20     18.50       0.0
  F141                 JUNCTION            803.45     18.50       0.0
  F140                 JUNCTION            803.32     14.98       0.0
  F138                 JUNCTION            802.73     19.77       0.0
  G157                 JUNCTION            818.01      9.79       0.0    Yes
  G165                 JUNCTION            817.17     12.33       0.0
  G170                 JUNCTION            816.57      4.53       0.0
  G176                 JUNCTION            815.23      4.38       0.0
  F1                   JUNCTION            812.77      4.34       0.0
  F4                   JUNCTION            811.41      3.20       0.0
  F11                  JUNCTION            809.11     16.50       0.0
  F5                   JUNCTION            806.95     12.59       0.0
  H147                 JUNCTION            825.23     32.97       0.0
  F16                  JUNCTION            832.40      4.90       0.0
  F15                  JUNCTION            823.50     12.40       0.0
  F12                  JUNCTION            812.60      8.30       0.0
  H118                 JUNCTION            817.81     13.79       0.0    Yes
  H115                 JUNCTION            816.34     14.76       0.0
  F70                  JUNCTION            803.04     13.46       0.0
  H208                 JUNCTION            834.76      4.74       0.0
  H206                 JUNCTION            831.63      4.47       0.0
  E21                  JUNCTION            796.91     14.00       0.0    Yes
  F88                  JUNCTION            798.38     12.42       0.0    Yes
  E30                  JUNCTION            797.01      8.99       0.0
  F84                  JUNCTION            800.61     10.50       0.0
  E31A                 JUNCTION            798.71      6.40       0.0
  E26                  JUNCTION            797.91     10.20       0.0
  C12                  JUNCTION            811.48     13.85       0.0    Yes
  C11                  JUNCTION            810.17     16.70       0.0
  C99                  JUNCTION            821.15     18.00       0.0    Yes
  C105                 JUNCTION            825.60     10.00       0.0
  C103                 JUNCTION            824.24     12.20       0.0    Yes
  C16                  JUNCTION            814.22      9.20       0.0
  C3                   JUNCTION            805.70     18.80       0.0
  C1                   JUNCTION            802.13     14.50       0.0
  C132                 JUNCTION            893.22     13.68       0.0    Yes
  C130                 JUNCTION            846.32      9.52       0.0
  C25                  JUNCTION            831.32      7.08       0.0
  C42                  JUNCTION            858.09     10.26       0.0    Yes
  C41                  JUNCTION            847.70      8.84       0.0
  C52                  JUNCTION            818.84      9.04       0.0    Yes
  F76                  JUNCTION            802.36     15.75       0.0    Yes
  F72                  JUNCTION            799.90     12.60       0.0
  F55                  JUNCTION            807.30      8.10       0.0
  F137                 JUNCTION            802.41     14.59       0.0
  F135                 JUNCTION            802.00     21.50       0.0
  F132                 JUNCTION            801.01     15.19       0.0
  F74                  JUNCTION            800.25     16.25       0.0
  F157                 JUNCTION            860.92     16.28       0.0
  F153                 JUNCTION            846.16     15.84       0.0
  F151                 JUNCTION            839.42     10.58       0.0
  F149                 JUNCTION            828.88     11.12       0.0
  F144                 JUNCTION            814.41     11.59       0.0
  F170                 JUNCTION            891.63      9.37       0.0
  F168                 JUNCTION            884.47      8.03       0.0
  F167                 JUNCTION            882.96     11.04       0.0    Yes
  F160                 JUNCTION            873.67     14.33       0.0    Yes
  F157A                JUNCTION            861.75     15.25       0.0    Yes
  F19                  JUNCTION            830.19      6.61       0.0    Yes
  F29                  JUNCTION            827.46      8.74       0.0    Yes
  F17                  JUNCTION            825.99      9.11       0.0    Yes
  F7                   JUNCTION            810.61     15.79       0.0
  F45                  JUNCTION            827.50      9.90       0.0    Yes
  F49                  JUNCTION            814.10      6.20       0.0
  H239                 JUNCTION            850.33      8.35       0.0
  H213                 JUNCTION            847.64      7.36       0.0    Yes
  H209                 JUNCTION            843.12      7.60       0.0    Yes
  H137                 JUNCTION            838.50      9.43       0.0    Yes
  H132                 JUNCTION            834.14     14.26       0.0
  H198                 JUNCTION            839.71      6.83       0.0    Yes
  H134                 JUNCTION            836.00     15.20       0.0
  H143                 JUNCTION            841.41      7.70       0.0    Yes
  H122                 JUNCTION            830.37     14.63       0.0
  H123                 JUNCTION            831.27     15.71       0.0
  H139                 JUNCTION            836.96     10.60       0.0
  F110                 JUNCTION            804.90     16.99       0.0    Yes
  F95                  JUNCTION            804.73     15.27       0.0
  OF7                  JUNCTION            802.85      5.15       0.0
  C199                 JUNCTION            825.21      7.79       0.0
  G137                 JUNCTION            852.21     19.59       0.0
  G135                 JUNCTION            849.60     18.20       0.0    Yes
  C53                  JUNCTION            819.41      7.90       0.0    Yes
  C55                  JUNCTION            819.01      5.82       0.0    Yes
  C63                  JUNCTION            816.70     16.82       0.0
  C60                  JUNCTION            814.02     13.83       0.0
  C57                  JUNCTION            812.16     12.15       0.0
  C58                  JUNCTION            815.35      7.80       0.0    Yes
  C61                  JUNCTION            815.15      7.85       0.0    Yes
  C66                  JUNCTION            834.48      7.10       0.0    Yes
  C101                 JUNCTION            823.27     13.93       0.0
  C106                 JUNCTION            825.51      9.56       0.0
  C49                  JUNCTION            872.34      6.66       0.0    Yes
  C44                  JUNCTION            889.25      7.70       0.0    Yes
  C37                  JUNCTION            893.24      9.76       0.0    Yes
  C171                 JUNCTION            832.12     13.01       0.0    Yes
  C170                 JUNCTION            834.96     13.99       0.0    Yes
  C137                 JUNCTION            893.13      5.30       0.0    Yes
  C139                 JUNCTION            868.02      8.87       0.0
  C140                 JUNCTION            871.56     10.12       0.0    Yes
  C158                 JUNCTION            832.91      8.90       0.0    Yes
  C169                 JUNCTION              0.00    841.26       0.0
  C162                 JUNCTION            826.78      9.66       0.0
  C165                 JUNCTION            829.95      8.30       0.0    Yes
  C116                 JUNCTION            829.27      5.81       0.0    Yes
  C112                 JUNCTION            831.40      5.00       0.0    Yes
  C18                  JUNCTION            817.22      4.23       0.0    Yes
  C17                  JUNCTION            814.78      7.69       0.0    Yes
  F91                  JUNCTION            806.31      7.41       0.0    Yes
  F86                  JUNCTION            802.35      7.52       0.0    Yes
  L116                 JUNCTION            843.50     11.50       0.0    Yes
  L112                 JUNCTION            842.06     11.50       0.0
  L110A                JUNCTION            834.23      9.20       0.0    Yes
  H222                 JUNCTION            846.30     10.04       0.0    Yes
  H240                 JUNCTION            851.51      8.04       0.0    Yes
  H211                 JUNCTION            845.27      6.86       0.0
  H156                 JUNCTION            840.84      8.00       0.0    Yes
  H141                 JUNCTION            838.56     10.51       0.0    Yes
  H269                 JUNCTION            839.00      9.00       0.0
  H201                 JUNCTION            840.30      4.90       0.0    Yes
  H200                 JUNCTION            841.84      6.45       0.0
  F62                  JUNCTION            814.60     10.00       0.0    Yes
  F44                  JUNCTION            829.50      6.60       0.0
  F50                  JUNCTION            814.60      6.40       0.0
  F14                  JUNCTION            822.20      9.55       0.0    Yes
  F20                  JUNCTION            825.38      7.02       0.0    Yes
  F32                  JUNCTION            829.73      6.17       0.0
  F31                  JUNCTION            828.97      7.33       0.0
  F36                  JUNCTION            828.91      7.49       0.0    Yes
  F38                  JUNCTION            832.80      5.40       0.0    Yes
  G194                 JUNCTION            853.80     17.60       0.0    Yes
  C28                  JUNCTION            895.79     14.21       0.0    Yes
  C27                  JUNCTION            882.66     10.00       0.0
  C35                  JUNCTION            893.00     10.00       0.0    Yes
  C179                 JUNCTION            845.95      8.00       0.0    Yes
  C176                 JUNCTION            833.00      8.10       0.0
  C182                 JUNCTION            831.20      1.72       0.0
  C186                 JUNCTION            829.70      8.23       0.0    Yes
  C194                 JUNCTION            827.30      7.50       0.0    Yes
  C185                 JUNCTION            859.54      8.88       0.0    Yes
  C144                 JUNCTION            848.61      7.15       0.0
  C135                 JUNCTION            905.00     10.00       0.0    Yes
  C133                 JUNCTION            894.53     10.66       0.0
  C207                 JUNCTION            896.44     10.86       0.0    Yes
  C209                 JUNCTION            895.76      5.13       0.0    Yes
  Toski                JUNCTION            833.10      8.90       0.0    Yes
  C125                 JUNCTION            835.10      9.12       0.0
  C128                 JUNCTION            838.58      5.90       0.0
  Holophane            JUNCTION            839.50      5.00       0.0    Yes
  Owens#1              JUNCTION            814.80      7.20       0.0    Yes
  Owens#2              JUNCTION            814.80      7.20       0.0    Yes
  G150                 JUNCTION            846.04     10.46       0.0
  G153                 JUNCTION            818.61     11.79       0.0
  F33                  JUNCTION            830.51      6.49       0.0    Yes
  H236                 JUNCTION            850.51      7.98       0.0
  F52                  JUNCTION            808.21      9.90       0.0    Yes
  F85                  JUNCTION            802.05      8.95       0.0
  F11a                 JUNCTION            810.99     14.62       0.0
  F211                 JUNCTION            828.00      5.00       0.0
  L119                 JUNCTION            846.50      8.50       0.0
  C22                  JUNCTION            821.85      8.15       0.0    Yes
  C122                 JUNCTION            831.09     10.91       0.0    Yes
  F21                  JUNCTION            819.43     14.57       0.0    Yes
  C149                 JUNCTION            853.16     16.84       0.0    Yes
  C245                 JUNCTION            808.27     15.53       0.0
  C222                 JUNCTION            813.34      8.36       0.0    Yes
  C224                 JUNCTION            811.64     10.26       0.0
  C243                 JUNCTION            808.84     15.86       0.0
  C218                 JUNCTION            827.00     10.40       0.0    Yes
  C215                 JUNCTION            821.40     11.00       0.0    Yes
  C81                  JUNCTION            817.12      3.17       0.0    Yes
  C239                 JUNCTION            809.50     14.50       0.0    Yes
  O73                  JUNCTION            843.84      8.36       0.0    Yes
  O71                  JUNCTION            843.29     10.91       0.0    Yes
  O6                   JUNCTION            841.14     10.16       0.0    Yes
  O2                   JUNCTION            840.35     13.55       0.0    Yes
  N34                  JUNCTION            839.45     12.70       0.0    Yes
  N14                  JUNCTION            838.51     15.62       0.0    Yes
  N9                   JUNCTION            837.59     10.51       0.0
  F7A                  JUNCTION            812.87     13.63       0.0
  F52a                 JUNCTION            808.41     10.09       0.0
  F86A                 JUNCTION            802.85      7.15       0.0
  H77                  JUNCTION            825.41     10.45       0.0
  h.p.                 JUNCTION            872.00      6.00       0.0
  OF13                 OUTFALL             798.00      4.00       0.0
  OF12                 OUTFALL             800.00      2.50       0.0
  OF31                 OUTFALL             795.00      2.50       0.0
  OF30                 OUTFALL             831.00      2.50       0.0
  OF16b                OUTFALL             845.00      2.00       0.0
  OF19                 OUTFALL             810.00      0.83       0.0
  OF20                 OUTFALL             810.00      1.50       0.0
  OF21                 OUTFALL             810.00      2.00       0.0
  OF22                 OUTFALL             810.00      2.00       0.0
  OF23                 OUTFALL             810.00      2.00       0.0
  OF24                 OUTFALL             813.00      2.00       0.0
  OF26                 OUTFALL             816.00      1.50       0.0
  OF25                 OUTFALL             814.00      1.50       0.0
  OF28                 OUTFALL             815.00      0.83       0.0
  OF27                 OUTFALL             816.00      1.50       0.0
  OF15                 OUTFALL             810.00      2.00       0.0
  OF8                  OUTFALL             795.00      3.00       0.0
  OF14a                OUTFALL             800.00      4.00       0.0
  OF14b                OUTFALL             800.00      2.50       0.0
  OF16a                OUTFALL             840.00      2.00       0.0
  STORMPSOF            OUTFALL             797.00      4.00       0.0
  WWTP1                OUTFALL             790.00      4.00       0.0
  OF6                  OUTFALL             801.70      3.00       0.0
  OF9                  OUTFALL             812.00      2.00       0.0
  OF5a                 OUTFALL             837.14      2.00       0.0
  OF5b                 OUTFALL             835.53      2.00       0.0
  OF5c                 OUTFALL             831.50      2.00       0.0
  OF33                 OUTFALL             825.00      3.00       0.0
  OF4                  OUTFALL             812.55      2.50       0.0
  OF5D                 OUTFALL             840.00      1.00       0.0
  OF7a                 OUTFALL             802.70      2.00       0.0
  
  
  ************
  Link Summary
  ************
  Name             From Node        To Node          Type            Length    %Slope Roughness
  ---------------------------------------------------------------------------------------------
  61               Q94              Q91              CONDUIT         1285.0    0.3198    0.0140
  63               Q91              Q89              CONDUIT          892.0    0.2119    0.0140
  65               Q89              Q83              CONDUIT          200.0    1.6052    0.0140
  71               Q77              Q74              CONDUIT          903.0    0.1717    0.0140
  73               Q74              Q70              CONDUIT         1294.0    0.1600    0.0140
  75               Q70              Q1               CONDUIT         1698.0    0.1608    0.0140
  77               Q1               P136             CONDUIT         1485.0    0.2269    0.0140
  83               Q5               Q1               CONDUIT         1543.0    0.2009    0.0140
  116              H103             H94              CONDUIT          840.0    0.2012    0.0140
  121              H99              H96              CONDUIT          900.0    0.2144    0.0140
  122              H96              H94              CONDUIT          540.0    0.0296    0.0140
  125              H189             H169             CONDUIT         1480.0    0.4912    0.0140
  144              H169             H165             CONDUIT         1150.0    0.5348    0.0140
  146              H165             H153             CONDUIT          960.0    0.8125    0.0140
  155              H153             H149             CONDUIT          320.0    1.1032    0.0140
  157              H149             H146             CONDUIT          270.0    0.9741    0.0140
  158              H146             H107             CONDUIT          300.0    1.1101    0.0140
  193              I97              I87              CONDUIT         1172.0    0.3592    0.0140
  194              I87              I84              CONDUIT          480.0    0.9167    0.0140
  201              L134             L129             CONDUIT          780.0    2.1736    0.0140
  203              L129             L120             CONDUIT          580.0    1.4277    0.0140
  207              L33              L40              CONDUIT          480.0    0.7104    0.0140
  210              M72              M63              CONDUIT          600.0    0.9539    0.0140
  214              H238             L120             CONDUIT          880.0    2.8421    0.0140
  216              L131             L129             CONDUIT          500.0    1.8603    0.0140
  220              L41              L43              CONDUIT          432.0    0.2917    0.0140
  227              I14              I10A             CONDUIT          927.0    0.4800    0.0140
  229              I10A             I36              CONDUIT          485.0    0.2062    0.0140
  235              Y2               Y5               CONDUIT          734.0    0.1117    0.0140
  237              Y5               Y11              CONDUIT          479.0    0.1127    0.0140
  244              L54              L53              CONDUIT          220.0    1.1319    0.0140
  249              E139             E136             CONDUIT         1094.0    0.1005    0.0140
  251              E136             E134             CONDUIT          774.0    0.0943    0.0140
  253              E134             E131             CONDUIT          920.0    0.0913    0.0140
  255              E131             E129             CONDUIT          760.0    0.0947    0.0140
  257              E129             E128             CONDUIT          457.0    0.0985    0.0140
  259              E128             E126             CONDUIT          500.0    0.0960    0.0140
  261              E126             E125             CONDUIT          200.0    0.1200    0.0140
  270              L101             L95              CONDUIT         1130.0    0.0912    0.0140
  271              L95              E134             CONDUIT          314.0    1.4142    0.0140
  274              X27              X25              CONDUIT          364.0    0.0824    0.0140
  278              X20              X18              CONDUIT          430.0    0.1581    0.0140
  280              X18              X17              CONDUIT           73.0    0.1644    0.0140
  282              X17              X12              CONDUIT          115.0    0.1565    0.0140
  284              X12              X7               CONDUIT          450.0    0.1622    0.0140
  286              X7               X3               CONDUIT         1292.0    0.1602    0.0140
  298              X95              Y1               CONDUIT         1120.0    0.5447    0.0140
  316              E90              E78              CONDUIT          447.0    0.1477    0.0140
  320              Y11              E117             CONDUIT          725.0    0.1117    0.0140
  322              E117             E115             CONDUIT          400.0    0.0900    0.0140
  337              E120             E115             CONDUIT          145.0    0.1793    0.0140
  340              K13              K12              CONDUIT          163.0    4.6061    0.0140
  342              K12              K3               CONDUIT         1200.0    0.6125    0.0140
  344              K3               K1               CONDUIT          118.0   15.2681    0.0140
  348              K8               K4               CONDUIT          400.0    5.0063    0.0140
  349              K4               K3               CONDUIT          402.0    0.4080    0.0140
  352              Z14              Z11              CONDUIT          589.0    0.3345    0.0140
  364              Z19              Z16              CONDUIT          860.0    0.2570    0.0140
  369              T1               Z72              CONDUIT          500.0    0.2300    0.0140
  370              Z72              Z54              CONDUIT         1300.0    0.1954    0.0140
  378              L108             L107             CONDUIT          373.0    0.3405    0.0140
  380              L107             L105             CONDUIT          620.0    0.2837    0.0140
  383              E144             E141A            CONDUIT         1325.0    0.0853    0.0140
  386              S34              S36              CONDUIT          457.0    0.1991    0.0140
  388              S36              S40              CONDUIT          748.0    0.2059    0.0140
  390              S40              R1               CONDUIT          295.0    0.1898    0.0140
  392              R1               P6               CONDUIT          638.0    0.3323    0.0140
  395              P92              P51              CONDUIT          977.0    0.4125    0.0140
  410              R5               R1               CONDUIT         1040.0    1.5348    0.0140
  412              P53              P51              CONDUIT          782.0    0.4003    0.0140
  416              P56              P53              CONDUIT          976.0    0.5215    0.0140
  425              E145             E144             CONDUIT          400.0    0.5200    0.0140
  428              V8               V1               CONDUIT         1102.0    2.1875    0.0140
  430              M63              M56              CONDUIT          660.0    0.7409    0.0140
  432              M56              M39              CONDUIT          670.0    0.9224    0.0140
  434              M39              M2               CONDUIT          580.0    0.3121    0.0140
  436              M2               M1               CONDUIT          478.0    2.1993    0.0140
  437              M1               E144             CONDUIT          380.0    3.9504    0.0140
  440              M49              M41              CONDUIT          720.0    0.3903    0.0140
  441              M41              M39              CONDUIT          388.0    1.1367    0.0140
  444              442              443              CONDUIT          332.0    0.4036    0.0140
  447              Q13              Q8               CONDUIT          804.0    0.2612    0.0140
  448              Q8               Q7               CONDUIT          379.0    0.2269    0.0140
  450              P136             P100             CONDUIT         1612.0    0.0763    0.0140
  452              P100             P96              CONDUIT         1988.0    0.2329    0.0140
  461              P167             P170             CONDUIT          650.0    0.2200    0.0140
  462              P170             P96              CONDUIT          332.0    0.2229    0.0140
  465              BB20             BB16             CONDUIT          378.0    0.6349    0.0140
  467              BB16             BB15             CONDUIT          190.0    0.3000    0.0140
  471              S1               S8               CONDUIT          561.0    0.2870    0.0140
  473              S8               S28              CONDUIT           75.0    0.2533    0.0140
  475              S28              S30              CONDUIT          529.0    0.3611    0.0140
  477              S30              S31              CONDUIT          293.0    0.3584    0.0140
  479              S31              S33              CONDUIT          585.0    0.1624    0.0140
  480              S33              S34              CONDUIT          249.0    0.2048    0.0140
  483              S12              S9               CONDUIT          274.0    1.5002    0.0140
  484              S9               S8               CONDUIT           75.0    2.8945    0.0140
  486              S14              S12              CONDUIT          511.0    0.5206    0.0140
  489              S20              S24              CONDUIT          729.0    0.7065    0.0140
  490              S24              S14              CONDUIT          972.0    0.6152    0.0140
  492              S83              S20              CONDUIT          821.0    0.3922    0.0140
  497              S86              S85              CONDUIT          585.0    3.3146    0.0140
  498              S85              S83              CONDUIT          476.0    0.1996    0.0140
  512              H57              H53              CONDUIT         1720.0    0.2291    0.0140
  515              H1               E61A             CONDUIT          412.0    0.0971    0.0140
  518              H16              H15              CONDUIT          240.0    1.6836    0.0140
  521              H3               H1               CONDUIT          550.0    0.0382    0.0140
  528              E60              E59              CONDUIT          432.0    0.3287    0.0140
  530              E59              E57              CONDUIT          230.0    0.1000    0.0140
  533              J2               J1               CONDUIT          368.0   -0.0571    0.0140
  cso1012          J1               OF12             CONDUIT           88.0    1.5911    0.0140
  18SYP1           E42              E40              CONDUIT          311.0    0.1929    0.0140
  18SYP2           E42              E40              CONDUIT          311.0    0.1929    0.0140
  560              E20              E19A             CONDUIT           85.0    0.1529    0.0140
  607              E19A             E13              CONDUIT         1739.0    0.0891    0.0140
  609              E13              E5               CONDUIT         4539.0    0.0423    0.0140
  611              E5               E4               CONDUIT          856.0    0.0315    0.0140
  613              E4               WWTP2            CONDUIT         1400.0    0.0707    0.0140
  616              D50              D1               CONDUIT          642.0    0.4922    0.0140
  617              D1               E5               CONDUIT          908.0    0.0661    0.0140
  619              D7               D1               CONDUIT         1530.0   -0.0001    0.0140
  622              A31              WWTP3            CONDUIT         1780.0    0.2275    0.0140
  623              WWTP3            WWTP2            CONDUIT          255.0    0.1569    0.0140
  627              A26              A31              CONDUIT         2010.0    1.0667    0.0140
  AlstonF.M.       A2               A3               CONDUIT          811.0   -0.4562    0.0140
  632              A3               A4               CONDUIT          405.0    0.5012    0.0140
  634              A4               A6               CONDUIT          610.0    2.4548    0.0140
  636              A6               A10              CONDUIT          802.0    5.4194    0.0140
  638              A10              A20              CONDUIT         2542.0    0.1255    0.0140
  640              A20              A23              CONDUIT          530.0    0.1358    0.0140
  641              A23              A26              CONDUIT         1600.0    0.4119    0.0140
  cso1030          M1               OF30             CONDUIT          110.0    0.9091    0.0140
  699              Z164             Z158             CONDUIT         1580.0    0.2437    0.0140
  701              Z158             Z157A            CONDUIT          551.0    0.3811    0.0140
  703              Z157A            Z156A            CONDUIT          520.0    0.9789    0.0140
  704              Z156A            Z16              CONDUIT          180.0    3.5188    0.0140
  cso1016b         Z156A            OF16b            CONDUIT          200.0    0.4000    0.0140
  755              H107             H72              CONDUIT          900.0    0.1711    0.0140
  cso1019          Y1               OF19             CONDUIT           85.0    2.1063    0.0140
  772              L2               L6               CONDUIT          300.0    0.2333    0.0140
  773              L6               L1A              CONDUIT          260.0    0.2577    0.0140
  776              I111             I22              CONDUIT          440.0    0.1977    0.0140
  cso1021          L2               OF21             CONDUIT          200.0    0.5000    0.0140
  787              L53              L44              CONDUIT          495.0    0.2141    0.0140
  788              L44              L41              CONDUIT          480.0   -0.1000    0.0140
  800              X25              X23              CONDUIT          400.0    0.1600    0.0140
  801              X23              X20              CONDUIT          850.0    0.1424    0.0140
  806              X57              X49              CONDUIT         2440.0    0.7791    0.0140
  808              X49              X41              CONDUIT          480.0    0.6354    0.0140
  cso1015          K1               OF15             CONDUIT          100.0    1.3501    0.0140
  cso1031          E20              OF31             CONDUIT          200.0    1.5002    0.0140
  837              I1               I1A              CONDUIT          172.0    0.3954    0.0140
  cso1014a         I1A              OF14a            CONDUIT          250.0    1.7123    0.0140
  cso1014b         E68              OF14b            CONDUIT           80.0    3.7526    0.0140
  848              Z16              Z147             CONDUIT          310.0    0.2516    0.0140
  849              Z147             Z14              CONDUIT          280.0    0.0929    0.0140
  863              H94              H88              CONDUIT          760.0    0.6513    0.0140
  864              H88              H85              CONDUIT          820.0    0.4037    0.0140
  866              H90              H88              CONDUIT          540.0    3.0199    0.0140
  874              J7               J2               CONDUIT          230.0    0.4565    0.0140
  878              J10              J7               CONDUIT          620.0    4.8444    0.0140
  880              J12              J10              CONDUIT          675.0    3.8696    0.0140
  882              J14              J10              CONDUIT          430.0    5.9991    0.0140
  884              J18              J14              CONDUIT          800.0    3.0364    0.0140
  887              J36              J30              CONDUIT         1080.0    1.3955    0.0140
  888              J30              J14              CONDUIT          520.0    0.7750    0.0140
  890              J27              J18              CONDUIT         1080.0    1.0945    0.0140
  891              J3               J2               CONDUIT          520.0    6.4267    0.0140
  893              J13              J12              CONDUIT          364.0    1.2089    0.0140
  895              J6               J3               CONDUIT          720.0    2.9388    0.0140
  OF12SYP8         J1               E57              CONDUIT          232.0    0.7802    0.0140
  OF12SYP12        J1               E57              CONDUIT          232.0    0.7543    0.0140
  898              443              P167             CONDUIT         1000.0    0.2210    0.0140
  899              E141A            E139             CONDUIT          780.0    0.1000    0.0140
  900              L105             L101             CONDUIT         1480.0    0.2216    0.0140
  904              L88              L54              CONDUIT          398.0   -0.3543    0.0140
  906              L76              L84              CONDUIT         1140.0    2.2593    0.0140
  909              E125             E107             CONDUIT          968.0    0.0857    0.0140
  910              E107             E104             CONDUIT          637.0    0.1429    0.0140
  923              S71              S33              CONDUIT          263.0    0.7985    0.0140
  925              BB15             BB1              CONDUIT         1674.0    0.5992    0.0140
  928              BB21             BB20             CONDUIT          390.0    0.0282    0.0140
  932              BB24             BB20             CONDUIT          878.0    0.3121    0.0140
  935              BB32             BB29             CONDUIT          794.0    0.1977    0.0140
  937              BB29             BB27             CONDUIT          419.0    0.2220    0.0140
  940              BB40             BB29             CONDUIT          752.0    0.5253    0.0140
  942              BB26             BB24             CONDUIT          564.0    0.1986    0.0140
  943              BB27             BB26             CONDUIT          100.0    0.3300    0.0140
  946              AA13             AA9              CONDUIT          399.0    0.0852    0.0140
  948              AA9              AA2              CONDUIT          813.0    0.1599    0.0140
  949              AA2              BB1              CONDUIT          675.0    0.3022    0.0140
  951              AA14             AA13             CONDUIT          511.0    0.2348    0.0140
  953              AA18             AA14             CONDUIT         1061.0    0.2922    0.0140
  956              AA25             AA22             CONDUIT         1188.0    0.2003    0.0140
  959              AA19             AA18             CONDUIT          154.0    0.2208    0.0140
  962              AA84             AA82             CONDUIT          506.0    0.1344    0.0140
  963              AA82             AA18             CONDUIT          370.0    0.0730    0.0140
  966              AA52             AA42             CONDUIT          315.0    0.1937    0.0140
  969              AA37             AA25             CONDUIT          375.0    0.6320    0.0140
  974              AA51             AA49             CONDUIT          562.0    0.0996    0.0140
  976              AA49             AA48             CONDUIT          187.0    0.1016    0.0140
  978              AA48             AA46             CONDUIT          517.0    0.0890    0.0140
  980              AA46             AA44             CONDUIT          660.0    0.1091    0.0140
  981              AA44             AA42             CONDUIT          683.0    0.0996    0.0140
  984              AA89             AA87             CONDUIT          623.0    0.0642    0.0140
  985              AA87             AA84             CONDUIT          921.0    0.1314    0.0140
  988              AA55             AA53             CONDUIT          961.0    0.1655    0.0140
  989              AA53             AA52             CONDUIT          391.0    0.1790    0.0140
  992              AA123            AA122            CONDUIT          287.0    0.2962    0.0140
[...]
  1309                        0.93      0.93      1.24      0.01         0.01
  1311                        1.20      1.20      1.36      0.01         0.01
  1312                        1.30      1.30      1.65      1.06         1.05
  1314                        1.12      1.12      1.25      0.01         0.01
  1404                        4.67      4.67      5.12      3.58         0.01
  1405                        3.94      5.12      3.94      5.20         3.94
  1407                        5.00      5.00      5.12      0.01         0.01
  1467                        5.37      5.37      5.60      0.01         0.01
  1468                        5.61      5.61     23.62      1.33         1.33
  1470                        5.57      5.57      5.82      0.01         0.01
  1491                        0.81      0.81      3.30      0.01         0.01
  1504                        3.90      3.90      4.88      0.01         0.01
  1516                        4.68      4.68      5.14      0.01         0.01
  1518                        4.32      4.32      5.07      0.01         0.01
  1547                       23.78     23.78     23.78      4.22         4.29
  1552                        4.54      4.54      4.96      0.01         0.01
  1553                        4.96      4.96      5.63      0.01         0.01
  1555                        4.13      4.13      4.40      4.20         4.10
  1557                        3.54      4.40      3.54      4.54         3.54
  1559                        0.57      0.57      3.72      0.01         0.01
  1561                        0.01      0.01      0.01      1.09         0.01
  1563                        1.92      1.92      6.09      0.01         0.01
  1564                        5.23      5.23      6.14      5.34         5.21
  1569                        4.89      5.18      4.94      4.00         3.71
  1570                        4.94      4.94      5.23      0.01         0.01
  1571                        4.91      4.91      5.20      0.01         0.01
  rcnsphn1                    6.75      6.78      6.77      6.74         6.60
  rcnsphn2                    6.16      6.34      6.16      6.48         6.16
  1573                        5.20      5.20      5.57      1.35         0.91
  1574                        0.01      0.01      3.86      0.01         0.01
  1575                        4.24      5.57      4.24      5.88         4.24
  1577                        0.01      1.45      0.01      2.53         0.01
  1578                        0.01      0.01      0.01      1.22         0.01
  1580                        5.14      6.03      5.98      5.79         4.88
  1581                        0.01      0.01      5.98      0.01         0.01
  1582                        5.22      5.22      6.03      0.01         0.01
  1583                        0.01      0.01      0.01      4.74         0.01
  cso1025                     0.01      1.53      0.01      2.04         0.01
  1596                        0.01      1.93      0.01      2.25         0.01
  1597                        0.01      0.01      1.77      0.01         0.01
  1600                        1.21      1.21      3.15      0.01         0.01
  1601                        3.55      3.55      5.36      0.01         0.01
  1602                        5.34      5.34      5.63      0.01         0.19
  1605                        5.05      5.05      5.10      3.12         3.07
  cso1017                     3.37      3.37     22.90      0.01         0.01
  1607                        5.09      5.10      5.10      4.92         1.19
  1609                        0.01      0.01      0.75      0.01         0.01
  cso1026                     0.01      0.90      0.01      1.10         0.01
  1611                        0.39      4.50      0.39      5.88         0.39
  1613                        0.01      0.01      0.03      0.01         0.01
  cso1024                     0.01      0.01      0.01      0.17         0.01
  1615                        2.67      5.57      2.67      5.98         1.12
  1617                        0.01      2.51      0.01      3.83         0.01
  1619                        4.80      4.80      5.67      0.01         0.01
  1624                        0.01      0.01      0.45      0.01         0.01
  cso1018                     0.92      0.92     21.84      0.01         0.01
  1627                        0.01      0.80      0.01      0.99         0.01
  1629                        0.01      0.01      2.04      0.01         0.01
  1633                        0.01      0.01      0.01      3.17         0.01
  1635                        4.12      4.67      4.12      4.97         4.12
  1636                        1.37      4.12      1.37      4.42         1.37
  1637                        4.07      4.07      4.29      0.01         0.01
  1641                        0.84      0.84      1.34      0.01         0.01
  1642                        1.30      1.30      1.46      0.01         0.01
  1644                        0.01      0.01      0.01      5.41         0.01
  1648                        3.37      8.06      3.37      8.32         3.37
  1651                        0.01      0.01      0.96      0.01         0.01
  Allston                     0.01      0.01     23.96      0.01         0.01
  1669                        4.62      4.62      5.87      0.01         0.01
  siphonk                     4.55      5.91      4.79      5.84         4.46
  1558                        0.01      3.72      0.01      4.03         0.01
  1673                        5.96      5.96      5.99      0.85         0.02
  cso1028                     0.01      5.41      0.01      5.47         0.01
  809                         0.01      0.01      4.42      0.01         0.01
  cso1027                     0.01      0.97      0.01      1.46         0.01
  1678                        4.42      4.42      4.58      0.01         0.01
  1689                        0.88      0.88      1.07      0.01         0.01
  87                          0.21      0.21      1.41      0.01         0.01
  89                          1.41      1.41      2.12      0.09         0.01
  91                          2.12      2.12      2.32      0.23         0.01
  95                          2.28      2.28      2.32      0.01         0.01
  97                          2.32      2.32      2.53      0.01         0.01
  100                         1.18      1.21      1.28      1.30         1.10
  102                         1.24      1.28      1.39      1.18         1.06
  104                         1.34      1.39      1.67      1.18         1.03
  106                         1.89      1.89      3.14      1.00         0.88
  108                         2.28      3.14      2.28      3.18         2.28
  112                         1.11      1.11      1.89      0.01         0.01
  F141SYP10                   2.07      2.07      2.28      0.01         0.01
  F141SYP12                   2.09      2.09      2.41      0.01         0.01
  139                         0.47      0.47      1.14      0.01         0.01
  160                         0.01      0.01      0.42      0.01         0.01
  162                         0.01      0.42      0.01      0.70         0.01
  164                         0.01      0.01      3.13      0.01         0.01
  178                         0.01      0.01      0.16      0.01         0.01
  566                         4.38      4.38      4.64      3.91         3.91
  572                         5.51      5.58      5.68      5.44         5.33
  574                         5.45      5.45      5.58      2.98         2.86
  578                         1.29      1.29      1.58      0.01         0.01
  583                         1.94      1.94      2.38      0.01         0.01
  586                         0.55      0.55      1.29      0.01         0.01
  588                         1.30      1.30      1.62      0.82         0.82
  593                         4.78      4.78      6.46      6.72         0.01
  644                         0.42      0.42      1.18      0.03         0.01
  655                         1.53      2.52      1.53      2.87         1.53
  657                         5.47      5.55      5.58      5.54         5.41
  660                         3.33      3.33      4.38      0.01         0.01
  663                         2.51      6.52      2.51      2.55         0.68
  667                         2.67      2.67      2.82      0.01         0.01
  669                         2.82      2.82      3.49      0.01         0.01
  671                         3.49      3.49      4.08      0.01         0.01
  672                         4.08      4.08      4.20      0.01         0.01
  674                         2.53      2.53      2.67      0.01         0.01
  684                         0.01      0.01      2.07      0.01         0.01
  712                         1.64      4.93      1.64      5.08         1.64
  716                         5.24      5.24      6.13      0.01         0.01
  722                         0.73      0.73      1.41      0.58         0.58
  723                         1.12      1.12      1.29      0.01         0.01
  729                         0.01      0.01      0.67      0.01         0.01
  733                         0.99      0.99      2.01      0.01         0.01
  739                         1.95      1.95      2.45      0.95         0.96
  745                         2.01      2.01      2.50      2.39         1.99
  747                         6.41      6.41      6.53      5.61         5.58
  758                         6.37      6.53      6.37      6.57         6.37
  759                         5.09      6.43      5.09      2.06         0.59
  814                         0.87      1.35      0.87      2.72         0.87
  820                         0.01      0.01      1.09      0.01         0.01
  856                         1.14      1.14      1.55      0.01         0.01
  861                         0.01      0.01      0.21      0.01         0.01
  1026                        2.42      2.42      2.99      1.17         0.01
  1028                        2.63      2.63      2.99      1.64         0.01
  1030                        2.53      2.53      3.06      1.62         1.62
  1032                        3.06      3.06      3.20      3.03         3.02
  1034                        2.01      3.20      2.01      3.53         2.01
  1035                        1.30      1.36      1.30      1.69         1.30
  1037                        1.55      1.55      2.78      1.35         1.36
  1039                        4.07      4.07      4.80      2.81         2.18
  1041                        1.31      1.31      1.43      1.34         1.27
  1043                        2.38      2.38      2.59      0.05         0.06
  1044                        2.45      2.59      2.53      1.30         0.87
  1054                        1.94      1.94      1.98      1.07         1.08
  1058                        0.01      0.01      0.24      0.01         0.01
  1062                        0.01      0.01      1.11      0.01         0.01
  1063                        1.31      1.37      1.47      1.18         1.07
  1065                        1.02      1.02      1.37      0.01         0.01
  1074                        1.51      1.51      2.95      0.86         0.01
  1076                        2.13      2.56      2.18      2.76         2.06
  1077                        2.25      2.83      2.25      2.28         1.32
  1079                        1.68      1.68      2.35      0.01         0.01
  1081                        1.86      1.86      2.44      0.10         0.03
  1083                        2.04      2.10      2.34      0.35         0.17
  1085                        0.14      0.14      1.17      0.01         0.01
  1087                        0.34      0.34      0.55      0.01         0.01
  1089                        0.13      0.13      0.44      0.01         0.01
  cso1007                     0.01      0.01      0.55      0.01         0.01
  1317                        1.07      1.57      1.07      1.72         1.07
  cso1005d                    0.01      1.22      0.01      1.10         0.01
  1325                        0.01      0.01      1.04      0.01         0.01
  1329                        0.40      0.40      0.83      0.01         0.01
  1330                        0.91      0.91      1.05      0.56         0.52
  1383                        1.86      1.86      2.45      0.01         0.01
  1385                        1.69      1.69      1.93      0.09         0.01
  1387                        1.33      1.33      2.23      0.01         0.01
  1391                        0.01      0.01      9.46      0.01         0.01
  1393                        0.64      0.64      0.92      0.01         0.01
  1396                        1.12      1.12      1.28      0.01         0.01
  1398                        0.92      0.92      0.98      0.70         0.64
  1399                        0.98      0.98      2.99      0.64         0.64
  1401                        0.69      0.69      0.91      0.01         0.01
  1410                        2.15      2.15      2.33      0.01         0.01
  1411                        3.00      3.00      5.01      0.01         0.01
  1413                        1.77      1.77      2.87      0.01         0.01
  1414                        2.87      2.87      4.93      0.01         0.01
  1416                        1.38      1.38      1.72      0.01         0.01
  1420                        0.94      0.94      1.14      0.01         0.01
  1423                        0.59      0.90      0.59      0.92         0.59
  1424                        0.01      0.59      0.01      0.61         0.01
  1426                        0.01      0.01      0.50      0.01         0.01
  1429                        0.55      0.55      0.68      0.65         0.54
  1431                        0.89      0.89      2.73      0.83         0.83
  1433                        2.73      2.73      3.24      0.15         0.01
  1435                        3.24      3.24      3.82      0.01         0.01
  1436                        2.06      3.82      2.06      4.09         2.06
  1438                        0.17      0.17      2.94      0.28         0.15
  1440                        0.83      0.83      0.95      0.01         0.01
  1443                        0.01      0.01      0.18      0.01         0.01
  1444                        0.25      0.25      0.39      0.01         0.01
  1446                        0.09      0.09      0.30      0.01         0.01
  1448                        0.17      0.17      0.35      0.01         0.01
  1465                        3.14      3.14      3.39      0.01         0.01
  1493                        1.02      1.02      1.54      0.01         0.01
  1496                        1.47      1.47      1.52      0.04         0.01
  1498                        1.40      1.40      1.41      0.01         0.01
  1512                        1.10      1.10      1.12      0.01         0.01
  1526                        1.00      1.55      1.00      1.55         1.00
  1528                        1.12      1.12      2.92      0.10         0.10
  1529                        1.74      3.62      1.74      4.64         1.74
  1535                        1.96      1.96      2.55      0.01         0.01
  1540                        5.58      6.32      6.52      0.40         1.44
  1541                        0.01      0.16      0.01      0.28         0.01
  1622                        1.08      1.34      1.08      1.10         0.66
  1658                        5.18      5.58      5.18      4.70         3.62
  1661                        5.53      5.53      5.56      4.42         0.01
  sphn1cso7                   5.57      6.66      5.57      6.66         0.10
  sphn2cso7                   4.30      4.30      5.57      5.38         0.01
  1665                        1.11      1.70      1.11      4.64         1.11
  cso1004                     0.01      1.09      0.01      4.50         0.01
  1667                        4.99      4.99      5.93      5.24         0.01
  NF&LPR12                    3.94      3.94      4.20      0.30         0.15
  NF&LPR14                    3.35      3.35      4.20      0.01         0.01
  NF&LPR16                    2.96      2.96      4.20      0.01         0.01
  1681                        0.61      0.61      1.07      0.08         0.01
  1683                        0.73      0.73      1.14      0.01         0.01
  1684                        0.61      0.61      0.85      0.01         0.01
  1691                        0.01      1.62      0.01      1.93         0.01
  1701                        0.97      3.87      0.97      0.01         0.36
  1702                        0.97      0.97      1.25      0.15         0.01
  1704                        1.54      1.54      1.67      0.01         0.01
  1705                        1.67      1.67      2.38      0.01         0.01
  1707                        1.04      1.22      1.04      1.32         1.04
  1713                        0.01      0.01      2.56      0.01         0.01
  1514                        0.40      0.40      6.96      0.01         0.01
  600                         1.71      2.74      1.73      2.95         1.70
  602                         1.60      1.60      2.51      1.40         1.39
  1049                        0.01      0.01      1.35      0.01         0.01
  1050                        1.35      1.35      2.74      0.01         0.01
  1699                        2.45      2.45      4.13      0.01         0.01
  604                         1.55      2.51      1.55      0.01         1.55
  1732                        1.55      1.55      2.54      0.01         0.01
  128                         0.50      0.50      0.61      0.01         0.01
  130                         0.61      0.61      0.95      0.01         0.01
  166                         0.95      0.95      1.13      0.01         0.01
  168                         1.13      1.13      1.26      0.81         0.79
  174                         0.99      1.18      0.99      1.47         0.99
  1542                        1.18      1.26      1.18      1.47         1.18
  176                         0.01      0.99      0.01      1.18         0.01
  1748                        0.01      0.01     21.44      0.83         0.01
  1750                        0.01      1.04      0.01      1.33         0.01
  1751                        5.90      6.13      6.13      0.85         0.37
  1754                        5.74      5.74      6.03      0.01         0.01
  1755                        5.98      6.03      6.32      5.45         4.74
  1757                        0.44      0.44      0.82      0.40         0.38
  1758                        0.82      0.82      1.90      0.01         0.01
  1765                        0.06      0.55      0.06      1.22         0.06
  2124                        0.01      0.01      1.22      0.01         0.01
  2125                        5.09      5.09      7.05      0.01         0.01
  2126                        1.01      1.01      1.20      0.01         0.01
  2127                        5.18      5.18      6.56      0.77         0.77
  2128                        4.64      4.64      5.40      2.32         2.29
  2130                        5.58      5.66      5.73      0.74         0.62
  2131                        5.41      5.41      5.72      0.01         0.01
  2137                        1.32      1.32      1.40      0.01         0.01
  2138                        0.47      4.01      0.47      4.61         0.47
  2141                        0.01      1.43      0.01      1.55         0.01
  

  Analysis begun on:  Tue Jun 23 20:55:26 2026
  Analysis ended on:  Tue Jun 23 20:55:34 2026
  Total elapsed time: 00:00:08