
  EPA STORM WATER MANAGEMENT MODEL - VERSION 5.2 (Build 5.2.4)
  ------------------------------------------------------------

  Scenario Run :  BASE 
  Example User5 
  
  ****************
  Analysis Options
  ****************
  Flow Units ............... CFS
  Process Models:
    Rainfall/Runoff ........ YES
    RDII ................... NO
    Snowmelt ............... NO
    Groundwater ............ NO
    Flow Routing ........... YES
    Ponding Allowed ........ NO
    Water Quality .......... NO
  Infiltration Method ...... HORTON
  Flow Routing Method ...... DYNWAVE
  Surcharge Method ......... EXTRAN
  Starting Date ............ 08/11/1998 00:00:00
  Ending Date .............. 08/11/1998 08:59:00
  Antecedent Dry Days ...... 0.0
  Report Time Step ......... 00:05:00
  Wet Time Step ............ 00:01:00
  Dry Time Step ............ 00:01:00
  Routing Time Step ........ 30.00 sec
  Variable Time Step ....... YES
  Maximum Trials ........... 8
  Number of Threads ........ 1
  Head Tolerance ........... 0.005000 ft
  
  
  **************************        Volume         Depth
  Runoff Quantity Continuity     acre-feet        inches
  **************************     ---------       -------
  Total Precipitation ......       287.426         2.930
  Evaporation Loss .........         2.735         0.028
  Infiltration Loss ........       108.755         1.109
  Surface Runoff ...........       173.597         1.770
  Final Storage ............         2.406         0.025
  Continuity Error (%) .....        -0.023
  
  
  **************************        Volume        Volume
  Flow Routing Continuity        acre-feet      10^6 gal
  **************************     ---------     ---------
  Dry Weather Inflow .......         0.000         0.000
  Wet Weather Inflow .......       173.494        56.536
  Groundwater Inflow .......         0.000         0.000
  RDII Inflow ..............         0.000         0.000
  External Inflow ..........       121.518        39.599
  External Outflow .........       197.860        64.476
  Flooding Loss ............         0.000         0.000
  Evaporation Loss .........         0.141         0.046
  Exfiltration Loss ........         0.000         0.000
  Initial Stored Volume ....         3.241         1.056
  Final Stored Volume ......       106.873        34.826
  Continuity Error (%) .....        -2.220
  
  
  *************************
  Highest Continuity Errors
  *************************
  Node 3SB22 (53.36%)
  Node 4SB21 (33.73%)
  Node 2SB21 (24.12%)
  Node 5SB21_OF (7.44%)
  Node 3SB21 (7.44%)
  
  
  ***************************
  Time-Step Critical Elements
  ***************************
  Link BRAD_OUT (78.20%)
  Link DEERWPIPE (6.72%)
  Link 789PIPE (5.69%)
  Link DEANPIPE1 (1.66%)
  Link LIB_5 (1.48%)
  
  
  ********************************
  Highest Flow Instability Indexes
  ********************************
  Link 812PIPE (68)
  Link 54INCH_2 (67)
  Link 771PIPE (64)
  Link 815PIPE1 (61)
  Link 36INCH_2 (59)
  
  
  *********************************
  Most Frequent Nonconverging Nodes
  *********************************
  Node O.O_RM (0.25%)
  Node 16SB1 (0.07%)
  Node 14SB11 (0.01%)
  Node 15SB11 (0.01%)
  Node 1122 (0.01%)
  
  
  *************************
  Routing Time Step Summary
  *************************
  Minimum Time Step           :     0.50 sec
  Average Time Step           :     1.95 sec
  Maximum Time Step           :    30.00 sec
  % of Time in Steady State   :     0.00
  Average Iterations per Step :     2.05
  % of Steps Not Converging   :     0.25
  Time Step Frequencies       :
     30.000 - 13.228 sec      :     0.02 %
     13.228 -  5.833 sec      :     0.07 %
      5.833 -  2.572 sec      :     2.58 %
      2.572 -  1.134 sec      :    94.76 %
      1.134 -  0.500 sec      :     2.56 %
  
  
  ***************************
  Subcatchment Runoff Summary
  ***************************
  
  ------------------------------------------------------------------------------------------------------------------------------
                            Total      Total      Total      Total     Imperv       Perv      Total       Total     Peak  Runoff
                           Precip      Runon       Evap      Infil     Runoff     Runoff     Runoff      Runoff   Runoff   Coeff
  Subcatchment                 in         in         in         in         in         in         in    10^6 gal      CFS
  ------------------------------------------------------------------------------------------------------------------------------
  0.10_UP#1                  2.93       0.00       0.03       1.30       0.74       0.85       1.58        4.85   190.21   0.540
  10SB11#1                   2.93       0.00       0.02       1.15       0.83       0.91       1.74        0.36    19.04   0.593
  10SB14#1                   2.93       0.00       0.03       0.73       1.63       0.49       2.11        0.49    16.74   0.721
  10SB17#1                   2.93       0.00       0.02       1.52       0.29       1.09       1.38        0.27     9.34   0.471
  10SB6#1                    2.93       0.00       0.03       0.43       2.06       0.33       2.39        0.58    21.37   0.817
  1121#1                     2.93       0.00       0.03       1.21       0.92       0.75       1.67        0.97    36.00   0.570
  11SB1#1                    2.93       0.00       0.03       0.73       1.58       0.55       2.13        0.36    15.65   0.726
  11SB11#1                   2.93       0.00       0.02       1.15       0.85       0.89       1.74        0.35    17.75   0.593
  11SB14_OF#1                2.93       0.00       0.03       1.71       0.13       1.06       1.19        0.59    15.34   0.407
  11SB14_OF#2                2.93       0.00       0.03       0.78       1.21       0.88       2.09        0.95    45.01   0.714
  11SB17#1                   2.93       0.00       0.02       1.14       0.85       0.90       1.75        0.23    12.01   0.596
  11SB6#1                    2.93       0.00       0.03       0.85       1.39       0.62       2.01        0.37    16.27   0.686
  12SB1#1                    2.93       0.00       0.03       1.06       1.11       0.70       1.81        0.31    12.34   0.618
  12SB11#1                   2.93       0.00       0.03       0.43       2.06       0.35       2.41        0.41    17.74   0.822
  12SB6#1                    2.93       0.00       0.03       0.18       2.49       0.18       2.67        0.32    24.55   0.910
  13SB1#1                    2.93       0.00       0.03       1.10       0.97       0.81       1.79        0.37    17.63   0.609
  13SB11#1                   2.93       0.00       0.02       1.23       0.73       0.93       1.66        0.82    39.58   0.568
  13SB17#1                   2.93       0.00       0.03       1.84       0.15       0.90       1.05        0.10     2.06   0.358
  13SB6#1                    2.93       0.00       0.03       1.07       1.05       0.75       1.81        0.61    26.90   0.617
  14SB1#1                    2.93       0.00       0.03       1.09       1.13       0.64       1.77        0.48    16.28   0.603
  14SB11#1                   2.93       0.00       0.03       1.26       0.78       0.85       1.62        0.50    20.65   0.554
  14SB17#1                   2.93       0.00       0.03       1.30       0.76       0.82       1.58        0.19     7.24   0.539
  14SB6#1                    2.93       0.00       0.03       1.61       0.20       1.09       1.29        0.17     5.05   0.442
  15SB1#1                    2.93       0.00       0.03       1.00       1.12       0.76       1.87        0.21    10.34   0.639
  15SB11#1                   2.93       0.00       0.03       1.24       0.80       0.85       1.65        0.76    32.03   0.562
  15SB6#1                    2.93       0.00       0.03       0.90       1.26       0.71       1.97        0.57    30.30   0.674
  16SB11#1                   2.93       0.00       0.03       1.09       1.03       0.75       1.78        1.23    52.12   0.608
  16SB17#1                   2.93       0.00       0.03       1.27       0.73       0.89       1.62        0.18     7.93   0.552
  16SB6#1                    2.93       0.00       0.03       0.90       1.28       0.69       1.98        0.43    21.81   0.674
  17SB11#1                   2.93       0.00       0.03       1.10       1.04       0.73       1.77        1.15    46.00   0.605
  17SB11#2                   2.93       0.00       0.03       1.33       0.62       0.94       1.56        1.58    65.74   0.532
  17SB11#3                   2.93       0.00       0.03       0.57       1.76       0.54       2.30        0.57    46.53   0.785
  17SB17#1                   2.93       0.00       0.03       1.60       0.50       0.78       1.28        0.32     8.94   0.437
  17SB6#1                    2.93       0.00       0.03       0.69       1.60       0.56       2.17        0.21    10.76   0.739
  18SB1#1                    2.93       0.00       0.03       0.80       1.43       0.64       2.07        0.17     9.02   0.705
  18SB6#1                    2.93       0.00       0.03       1.16       0.88       0.85       1.73        0.22    10.14   0.589
  19SB1#1                    2.93       0.00       0.03       1.07       1.03       0.77       1.81        0.27    12.26   0.616
  19SB6#1                    2.93       0.00       0.02       1.09       0.91       0.89       1.80        0.24    13.81   0.613
  1SB14#1                    2.93       0.00       0.03       0.94       1.16       0.78       1.94        0.18    10.83   0.661
  1SB19#1                    2.93       0.00       0.04       0.74       1.31       0.82       2.12        0.37    16.15   0.724
  1SB20#1                    2.93       0.00       0.03       0.83       1.43       0.60       2.03        0.25    10.91   0.693
  1SB21#1                    2.93       0.00       0.03       0.85       1.34       0.69       2.03        0.19    10.99   0.692
  1SB22#1                    2.93       0.00       0.03       0.89       1.32       0.66       1.98        0.22    10.60   0.677
  1SB23#1                    2.93       0.00       0.03       0.86       1.35       0.65       2.01        0.42    20.14   0.685
  1SB4#1                     2.93       0.00       0.02       0.86       1.27       0.75       2.02        0.12     8.27   0.690
  1SB5#1                     2.93       0.00       0.03       0.90       1.26       0.72       1.97        0.29    15.42   0.673
  1SB7#1                     2.93       0.00       0.02       1.24       0.68       0.97       1.65        0.25    12.37   0.564
  1SB9#1                     2.93       0.00       0.03       1.20       0.83       0.85       1.68        0.41    18.25   0.574
  20SB1#1                    2.93       0.00       0.03       1.11       0.93       0.84       1.78        0.43    21.36   0.607
  20SB6#1                    2.93       0.00       0.02       1.09       0.86       0.94       1.80        0.18    11.19   0.615
  21SB1#1                    2.93       0.00       0.03       1.18       0.89       0.81       1.71        0.53    22.72   0.582
  21SB6#1                    2.93       0.00       0.03       1.01       1.08       0.79       1.87        0.23    12.48   0.639
  22SB1#1                    2.93       0.00       0.03       1.04       1.06       0.78       1.84        0.28    13.81   0.627
  22SB6#1                    2.93       0.00       0.03       0.96       1.14       0.78       1.92        0.28    15.91   0.655
  23SB1#1                    2.93       0.00       0.03       1.23       0.94       0.69       1.64        0.47    15.64   0.558
  23SB6#1                    2.93       0.00       0.03       0.86       1.32       0.70       2.02        0.37    20.96   0.688
  24SB1#1                    2.93       0.00       0.02       0.92       1.15       0.82       1.97        0.20    14.04   0.672
  24SB6#1                    2.93       0.00       0.03       0.99       1.11       0.77       1.89        0.49    25.79   0.643
  25SB1#1                    2.93       0.00       0.03       1.06       1.11       0.70       1.81        0.59    23.29   0.617
  25SB6#1                    2.93       0.00       0.03       1.02       1.08       0.78       1.86        0.39    19.74   0.634
  26SB1#1                    2.93       0.00       0.02       1.08       0.91       0.90       1.80        0.20    11.53   0.616
  26SB6#1                    2.93       0.00       0.02       0.94       1.16       0.79       1.94        0.14     8.40   0.663
  27SB1#1                    2.93       0.00       0.02       1.01       1.05       0.82       1.87        0.25    13.97   0.639
  28SB1#1                    2.93       0.00       0.03       1.02       1.16       0.69       1.85        0.51    20.81   0.631
  2SB1#1                     2.93       0.00       0.03       0.26       2.29       0.19       2.49        0.21     5.27   0.850
  2SB11#1                    2.93       0.00       0.04       0.52       1.74       0.57       2.31        0.81    30.07   0.790
  2SB11#2                    2.93       0.00       0.03       0.69       1.35       0.82       2.17        1.00    52.83   0.742
  2SB14#1                    2.93       0.00       0.03       1.26       0.70       0.93       1.63        0.71    32.21   0.556
  2SB17#1                    2.93       0.00       0.04       0.83       1.13       0.90       2.03        0.51    21.06   0.693
  2SB19#1                    2.93       0.00       0.02       1.67       0.11       1.13       1.24        0.11     3.36   0.422
  2SB20_OF#1                 2.93       0.00       0.03       0.89       1.25       0.73       1.98        0.33    18.61   0.676
  2SB21#1                    2.93       0.00       0.03       1.54       0.42       0.94       1.35        0.21     6.67   0.462
  2SB22#1                    2.93       0.00       0.03       1.64       0.29       0.96       1.25        0.20     5.37   0.428
  2SB23#1                    2.93       0.00       0.02       1.07       0.96       0.85       1.81        0.32    17.41   0.619
  2SB3#1                     2.93       0.00       0.02       0.96       1.10       0.82       1.92        0.13     8.37   0.655
  2SB4#1                     2.93       0.00       0.03       0.85       1.31       0.71       2.02        0.08     5.08   0.691
  2SB5#1                     2.93       0.00       0.03       0.89       1.31       0.67       1.98        0.18     8.67   0.675
  2SB7#1                     2.93       0.00       0.03       0.94       1.18       0.76       1.94        0.08     4.54   0.661
  31SB1#1                    2.93       0.00       0.03       0.71       1.65       0.48       2.13        0.62    21.95   0.728
  32SB1#1                    2.93       0.00       0.03       0.83       1.45       0.57       2.03        0.23     9.30   0.691
  33SB1#1                    2.93       0.00       0.03       1.00       1.12       0.76       1.88        0.23    11.32   0.641
  34SB1#1                    2.93       0.00       0.03       0.89       1.37       0.60       1.97        0.47    18.64   0.672
  35SB1#1                    2.93       0.00       0.03       1.00       1.11       0.77       1.88        0.29    14.94   0.642
  37SB1#1                    2.93       0.00       0.02       1.08       0.94       0.87       1.80        0.17     9.54   0.616
  38SB1#1                    2.93       0.00       0.03       0.95       1.28       0.63       1.91        0.19     7.22   0.653
  39SB1#1                    2.93       0.00       0.03       1.03       1.11       0.73       1.84        0.45    20.07   0.628
  3SB1#1                     2.93       0.00       0.03       1.15       0.97       0.75       1.72        0.33    12.90   0.587
  3SB14#1                    2.93       0.00       0.02       1.20       0.78       0.91       1.69        0.28    13.73   0.577
  3SB17#1                    2.93       0.00       0.03       0.85       1.38       0.64       2.02        0.35    16.24   0.688
  3SB21#1                    2.93       0.00       0.03       1.50       0.40       0.99       1.39        0.16     5.45   0.476
  3SB23#1                    2.93       0.00       0.03       0.96       1.15       0.77       1.92        0.31    16.80   0.655
  3SB3#1                     2.93       0.00       0.02       0.79       1.37       0.72       2.09        0.13     9.67   0.712
  3SB6#1                     2.93       0.00       0.03       1.04       1.04       0.80       1.84        0.21    10.81   0.628
  3SB7#1                     2.93       0.00       0.02       1.26       0.66       0.98       1.63        0.09     4.54   0.557
  3SB9#1                     2.93       0.00       0.02       1.45       0.30       1.15       1.46        0.26    11.10   0.497
  40SB1#1                    2.93       0.00       0.03       1.22       0.77       0.90       1.66        0.70    32.25   0.568
  41SB1#1                    2.93       0.00       0.03       1.72       0.06       1.12       1.18        0.45    12.56   0.403
  43SB1#1                    2.93       0.00       0.03       0.81       1.42       0.64       2.06        0.25    13.39   0.704
  44SB1#1                    2.93       0.00       0.03       1.14       1.05       0.68       1.73        0.28     9.73   0.589
  45SB1#1                    2.93       0.00       0.03       1.14       0.92       0.83       1.75        0.25    11.51   0.596
  46SB1#1                    2.93       0.00       0.03       1.07       1.03       0.77       1.81        0.31    14.29   0.617
  49SB1#1                    2.93       0.00       0.02       1.40       0.47       1.03       1.50        0.53    21.78   0.511
  4SB1#1                     2.93       0.00       0.03       1.33       0.78       0.77       1.54        0.46    15.77   0.527
  4SB11#1                    2.93       0.00       0.04       0.50       1.75       0.59       2.34        0.73    32.52   0.799
  4SB14#1                    2.93       0.00       0.02       1.12       0.82       0.95       1.77        0.26    15.57   0.603
  4SB17#1                    2.93       0.00       0.02       0.97       1.12       0.80       1.91        0.36    20.76   0.652
  4SB19_OF#1                 2.93       0.00       0.02       1.41       0.18       1.32       1.50        0.11     7.47   0.512
  4SB23#1                    2.93       0.00       0.03       0.92       1.26       0.68       1.95        0.22     9.99   0.664
  4SB3#1                     2.93       0.00       0.03       0.96       1.15       0.76       1.91        0.15     7.81   0.653
  4SB5_OF#1                  2.93       0.00       0.02       1.24       0.49       1.17       1.67        0.15    11.61   0.569
  4SB6#1                     2.93       0.00       0.03       1.10       1.00       0.77       1.78        0.25    10.94   0.606
  4SB9#1                     2.93       0.00       0.02       1.42       0.45       1.02       1.48        0.61    24.19   0.505
  51SB1#1                    2.93       0.00       0.02       0.77       1.39       0.72       2.11        0.07     5.76   0.720
  5SB1#1                     2.93       0.00       0.03       1.29       0.67       0.93       1.60        0.70    30.55   0.546
  5SB11#1                    2.93       0.00       0.03       0.53       1.69       0.63       2.32        0.57    28.33   0.793
  5SB14#1                    2.93       0.00       0.02       1.61       0.12       1.18       1.30        0.13     4.48   0.443
  5SB17#1                    2.93       0.00       0.03       1.08       1.03       0.77       1.80        0.41    18.47   0.615
  5SB3#1                     2.93       0.00       0.02       0.98       1.08       0.82       1.90        0.13     7.58   0.648
  5SB6#1                     2.93       0.00       0.02       1.35       0.38       1.17       1.55        0.24    13.02   0.530
  5SB7_OF#1                  2.93       0.00       0.02       1.39       0.23       1.29       1.52        0.26    17.39   0.519
  6SB1#1                     2.93       0.00       0.02       1.56       0.22       1.13       1.34        0.27     9.41   0.459
  6SB11#1                    2.93       0.00       0.03       0.47       2.00       0.35       2.35        0.60    21.44   0.804
  6SB14#1                    2.93       0.00       0.03       0.81       1.38       0.68       2.06        0.18    10.78   0.704
  6SB17#1                    2.93       0.00       0.02       1.19       0.77       0.92       1.70        0.25    12.73   0.579
  6SB3#1                     2.93       0.00       0.02       1.13       0.85       0.91       1.76        0.16     9.09   0.601
  7SB1#1                     2.93       0.00       0.03       1.27       0.74       0.88       1.62        0.45    19.06   0.552
  7SB11#1                    2.93       0.00       0.03       0.34       2.19       0.31       2.50        0.28    16.05   0.854
  7SB14#1                    2.93       0.00       0.02       1.55       0.17       1.18       1.36        0.18     6.68   0.463
  7SB17#1                    2.93       0.00       0.03       1.10       0.98       0.80       1.78        0.35    16.37   0.607
  7SB6#1                     2.93       0.00       0.03       0.53       1.89       0.43       2.32        0.18     8.55   0.792
  8SB1#1                     2.93       0.00       0.03       1.43       0.62       0.83       1.45        0.40    13.55   0.495
  8SB11#1                    2.93       0.00       0.03       0.59       1.73       0.55       2.28        0.19    14.41   0.777
  8SB14#1                    2.93       0.00       0.03       0.81       1.37       0.70       2.07        0.12     7.96   0.705
  8SB17#1                    2.93       0.00       0.03       1.25       0.76       0.89       1.64        0.39    17.35   0.560
  8SB3_OF#1                  2.93       0.00       0.02       1.40       0.27       1.23       1.50        0.18     9.63   0.514
  8SB6#1                     2.93       0.00       0.03       1.26       0.19       1.44       1.63        0.30    11.27   0.556
  9SB1#1                     2.93       0.00       0.03       1.46       0.55       0.88       1.43        0.46    15.86   0.487
  9SB11#1                    2.93       0.00       0.02       1.39       0.42       1.10       1.51        0.24    10.70   0.516
  9SB14#1                    2.93       0.00       0.03       1.08       0.97       0.84       1.81        0.30    15.72   0.617
  9SB17#1                    2.93       0.00       0.02       1.34       0.47       1.09       1.56        0.23    11.41   0.534
  SB1018_OF#1                2.93       0.00       0.02       1.35       0.27       1.29       1.56        0.10     7.37   0.532
  SB1018_OF#2                2.93       0.00       0.02       1.06       0.80       1.04       1.84        0.21    18.73   0.628
  SB1018_OF#3                2.93       0.00       0.02       0.88       1.20       0.80       2.00        0.65    47.16   0.682
  SB1216_OF#1                2.93       0.00       0.03       0.75       1.25       0.86       2.12        0.43    20.99   0.722
  SB1216_OF#2                2.93       0.00       0.03       0.17       2.32       0.36       2.68        0.28    22.85   0.913
  
  
  ******************
  Node Depth Summary
  ******************
  
  ---------------------------------------------------------------------------------
                                 Average  Maximum  Maximum  Time of Max    Reported
                                   Depth    Depth      HGL   Occurrence   Max Depth
  Node                 Type         Feet     Feet     Feet  days hr:min        Feet
  ---------------------------------------------------------------------------------
  0.10_RM              JUNCTION     9.21     9.93   650.53     0  01:10        9.93
  0.10_UP              JUNCTION     9.13     9.99   650.69     0  01:09        9.99
  0.15_RM              JUNCTION     6.06     6.98   650.88     0  01:09        6.98
  102                  JUNCTION     0.41     3.09   687.59     0  00:20        3.08
  1050                 JUNCTION     3.99     4.91   678.24     0  02:19        4.91
  10SB1                JUNCTION     2.70     5.37   681.91     0  00:36        5.37
  10SB11               JUNCTION     0.22     1.19   693.99     0  00:15        1.19
  10SB14               JUNCTION     1.34     7.73   659.73     0  00:27        7.73
  10SB17               JUNCTION     0.93     6.41   672.44     0  00:30        6.40
  10SB6                JUNCTION     1.24     7.24   688.16     0  00:28        7.24
  1118                 JUNCTION     3.08     9.26   681.16     0  00:43        9.08
  1119                 JUNCTION     3.11     9.43   681.30     0  00:43        9.27
  1120                 JUNCTION     3.15     9.77   681.60     0  00:37        9.69
  1121                 JUNCTION     3.18     9.88   681.68     0  00:43        9.80
  1122                 JUNCTION     3.21     9.92   681.69     0  00:37        9.85
  1123                 JUNCTION     3.24     9.67   681.40     0  00:36        9.59
  1124                 JUNCTION     3.27     9.48   681.18     0  00:36        9.37
  1125                 JUNCTION     3.30     9.48   681.15     0  00:36        9.24
  1126                 JUNCTION     3.33     9.82   681.45     0  00:36        8.98
  1127                 JUNCTION     3.36     9.88   681.48     0  00:36        9.03
  1128                 JUNCTION     2.42     6.99   678.58     0  00:42        6.59
  11SB1                JUNCTION     0.21     0.85   683.98     0  00:22        0.85
  11SB11               JUNCTION     0.16     0.88   695.68     0  00:14        0.88
  11SB14_OF            JUNCTION     4.74     6.79   652.29     0  01:07        6.77
  11SB17               JUNCTION     0.98     7.36   664.38     0  00:44        7.36
  11SB6                JUNCTION     1.49     7.29   691.29     0  00:19        7.29
  12SB1                JUNCTION     0.20     0.78   692.78     0  00:21        0.78
  12SB11               JUNCTION     0.17     0.64   744.94     0  00:21        0.64
  12SB6                JUNCTION     0.36     2.23   692.23     0  00:07        2.17
  13SB1                JUNCTION     0.37     1.40   689.80     0  00:24        1.40
  13SB11               JUNCTION     2.11    11.30   694.10     0  00:27       11.29
  13SB17               JUNCTION     1.64    10.56   663.74     0  00:47       10.54
  13SB6                JUNCTION     0.29     1.39   697.39     0  00:20        1.39
  14SB1                JUNCTION     0.33     1.26   696.26     0  00:22        1.26
  14SB11               JUNCTION     2.03    10.84   699.29     0  00:25       10.84
  14SB17               JUNCTION     1.64    10.22   666.16     0  00:49       10.22
  14SB6                JUNCTION     0.44     1.92   695.92     0  00:20        1.92
  15SB1                JUNCTION     0.77     2.53   681.03     0  00:24        2.53
  15SB11               JUNCTION     2.04    10.94   701.69     0  00:23       10.92
  15SB17               JUNCTION     1.35     7.95   666.95     0  00:40        7.95
  15SB6                JUNCTION     0.62     3.42   703.42     0  00:15        3.42
  16SB1                JUNCTION     2.38     5.25   680.75     0  00:30        5.25
  16SB11               JUNCTION     2.08    11.39   703.54     0  00:16       11.38
  16SB17               JUNCTION     0.16     0.68   669.18     0  00:15        0.67
  16SB6                JUNCTION     1.30     6.98   692.88     0  00:20        6.98
  17SB1                JUNCTION     2.42     4.68   680.09     0  00:31        4.67
  17SB11               JUNCTION     1.97    11.41   705.01     0  00:12       11.39
  17SB17               JUNCTION     0.92     6.03   668.42     0  00:30        6.02
  17SB6                JUNCTION     1.29     7.67   700.67     0  00:17        7.67
  18SB1                JUNCTION     0.44     1.86   682.76     0  00:21        1.86
  18SB17               JUNCTION     1.57     9.35   661.16     0  00:59        9.34
  18SB6                JUNCTION     1.15     8.43   709.43     0  00:16        8.42
  19SB1                JUNCTION     0.17     0.77   683.77     0  00:15        0.77
  19SB17               JUNCTION     2.94     7.89   656.24     0  01:03        7.88
  19SB6                JUNCTION     0.16     0.75   718.75     0  00:18        0.75
  1SB11_OF             JUNCTION     4.13     8.13   658.76     0  01:06        8.12
  1SB14                JUNCTION     0.11     0.63   691.13     0  00:13        0.63
  1SB17_OF             JUNCTION     2.95     6.41   654.37     0  01:07        6.39
  1SB19                JUNCTION     0.25     0.97   670.97     0  00:21        0.96
  1SB20                JUNCTION     0.17     0.72   678.72     0  00:21        0.72
  1SB21                JUNCTION     0.18     0.63   677.63     0  00:15        0.63
  1SB22                JUNCTION     0.19     0.65   679.65     0  00:16        0.64
  1SB23                JUNCTION     0.19     0.87   682.87     0  00:16        0.87
  1SB3_MIL             JUNCTION     0.83     2.69   682.60     0  00:36        2.69
  1SB4                 JUNCTION     0.09     0.60   683.15     0  00:12        0.59
  1SB5                 JUNCTION     0.16     0.81   678.41     0  00:15        0.81
  1SB6_OF              JUNCTION     6.84     8.19   674.17     0  01:02        8.19
  1SB7                 JUNCTION     0.14     0.75   679.16     0  00:13        0.74
  1SB9                 JUNCTION     0.28     2.18   678.28     0  00:15        2.18
  20SB1                JUNCTION     0.28     1.04   689.04     0  00:21        1.04
  20SB6                JUNCTION     0.18     1.02   710.52     0  00:15        1.02
  21SB1                JUNCTION     0.27     1.26   701.76     0  00:16        1.25
  21SB6                JUNCTION     0.12     0.68   710.68     0  00:15        0.68
  22SB1                JUNCTION     0.13     0.66   708.66     0  00:15        0.66
  22SB6                JUNCTION     0.16     0.87   706.87     0  00:15        0.87
  23SB1                JUNCTION     0.20     0.69   705.69     0  00:21        0.68
  23SB6                JUNCTION     0.28     1.64   698.64     0  00:16        1.63
  24SB1                JUNCTION     0.08     0.59   706.59     0  00:12        0.58
  24SB6                JUNCTION     0.21     1.08   717.48     0  00:15        1.08
  25SB1                JUNCTION     0.21     0.83   696.83     0  00:21        0.82
  25SB6                JUNCTION     0.20     1.04   719.84     0  00:15        1.04
  26SB1                JUNCTION     0.11     0.73   697.73     0  00:12        0.72
  26SB6                JUNCTION     0.10     0.57   724.47     0  00:12        0.57
  27SB1                JUNCTION     0.18     1.15   691.15     0  00:12        1.14
  28SB1                JUNCTION     0.25     1.21   689.21     0  00:15        1.21
  29SB1                JUNCTION     0.35     1.55   685.55     0  00:17        1.55
  2SB1                 JUNCTION     0.23     0.72   699.15     0  00:30        0.72
  2SB11                JUNCTION     2.41    12.68   677.13     0  00:38       12.68
  2SB14                JUNCTION     0.39     1.80   685.50     0  00:22        1.79
  2SB17                JUNCTION     1.06     6.05   674.18     0  00:24        6.05
  2SB19                JUNCTION     0.13     0.46   669.77     0  00:30        0.46
  2SB20_OF             JUNCTION    12.12    13.69   674.17     0  01:04       13.68
  2SB21                JUNCTION     4.86     5.67   673.27     0  02:42        5.65
  2SB22                JUNCTION     2.52     3.15   673.25     0  02:41        3.14
  2SB23                JUNCTION     0.17     0.90   678.90     0  00:14        0.89
  2SB2_MIL             JUNCTION     1.04     6.87   682.47     0  00:35        5.85
  2SB3                 JUNCTION     1.46     4.83   681.96     0  00:35        4.83
  2SB4                 JUNCTION     0.20     1.04   679.59     0  00:15        1.04
  2SB5                 JUNCTION     0.14     0.63   678.23     0  00:16        0.62
  2SB6                 JUNCTION     2.81     5.20   675.68     0  00:59        5.19
  2SB7                 JUNCTION     0.10     0.53   678.49     0  00:13        0.52
  2SB9                 JUNCTION     0.19     1.13   668.13     0  00:17        1.13
  30SB1                JUNCTION     0.48     1.97   684.07     0  00:19        1.97
  31SB1                JUNCTION     0.28     0.91   684.91     0  00:22        0.91
  32SB1                JUNCTION     0.48     2.18   680.35     0  00:37        2.17
  33SB1                JUNCTION     2.16     2.92   678.24     0  02:22        2.92
  34SB1                JUNCTION     0.21     0.78   686.78     0  00:21        0.77
  35SB1                JUNCTION     0.37     1.75   681.76     0  01:00        1.75
  36SB1                JUNCTION     0.78     3.25   681.76     0  00:59        3.25
  37SB1                JUNCTION     0.59     2.42   681.76     0  00:58        2.42
  38SB1                JUNCTION     0.24     0.98   683.18     0  00:21        0.97
  39SB1                JUNCTION     0.20     0.89   687.84     0  00:16        0.89
  3SB1                 JUNCTION     0.38     1.48   698.73     0  00:21        1.46
  3SB14                JUNCTION     0.30     1.30   683.30     0  00:23        1.30
  3SB17                JUNCTION     0.28     1.29   676.29     0  00:19        1.29
  3SB19                JUNCTION     0.20     1.05   665.87     0  00:21        1.04
  3SB21                JUNCTION     3.22     3.95   673.30     0  02:42        3.91
  3SB22                JUNCTION     3.90     4.65   673.25     0  02:42        4.64
  3SB23                JUNCTION     0.39     1.75   676.41     0  00:21        1.74
  3SB3                 JUNCTION     0.39     1.40   681.96     0  00:34        1.40
  3SB5                 JUNCTION     0.32     1.41   674.34     0  01:01        1.39
  3SB6                 JUNCTION     0.26     1.32   675.71     0  00:58        1.29
  3SB7                 JUNCTION     0.30     1.44   678.26     0  01:01        1.44
  3SB9                 JUNCTION     0.40     1.56   669.19     0  00:21        1.55
  40SB1                JUNCTION     2.62     3.63   678.63     0  00:31        3.63
  41SB1                JUNCTION     3.60     4.44   678.24     0  02:20        4.44
  42SB1                JUNCTION     4.43     5.38   678.24     0  02:19        5.38
  43SB1                JUNCTION     0.21     0.75   680.15     0  00:12        0.75
  44SB1                JUNCTION     0.20     0.71   681.01     0  00:21        0.71
  45SB1                JUNCTION     0.32     1.15   679.65     0  00:22        1.15
  46SB1                JUNCTION     3.53     5.10   676.61     0  00:58        5.09
  47SB1                JUNCTION     4.06     6.21   676.12     0  00:48        6.21
  48SB1_OF             JUNCTION     4.48     7.08   676.16     0  00:46        7.08
  49SB1                JUNCTION     4.30     5.59   678.21     0  00:45        5.58
  4SB1                 JUNCTION     0.37     1.55   697.11     0  00:21        1.54
  4SB11                JUNCTION     2.68    14.02   682.42     0  00:36       14.01
  4SB14                JUNCTION     0.26     1.17   678.17     0  00:22        1.16
  4SB17                JUNCTION     0.18     1.10   679.10     0  00:13        1.09
  4SB19_OF             JUNCTION     2.72     5.64   664.07     0  01:04        5.64
  4SB21                JUNCTION     5.85     6.66   673.26     0  02:43        6.65
  4SB22_OF             JUNCTION     7.71     9.13   674.17     0  01:03        9.13
  4SB23                JUNCTION     0.16     0.73   676.90     0  00:18        0.73
  4SB3                 JUNCTION     0.13     0.64   684.26     0  00:15        0.64
  4SB5_OF              JUNCTION     6.02     7.44   674.33     0  01:02        7.42
  4SB6                 JUNCTION     0.16     0.72   680.56     0  00:16        0.72
  4SB7                 JUNCTION     0.49     2.65   678.26     0  01:01        2.65
  4SB9                 JUNCTION     0.18     0.85   677.85     0  00:15        0.84
  50SB1                JUNCTION     4.44     5.71   678.18     0  00:45        5.69
  51SB1                JUNCTION     0.23     2.19   677.39     0  00:38        2.16
  52SB1_OF             JUNCTION     4.06     7.52   677.22     0  00:44        7.52
  53SB1_OF             JUNCTION     3.27     7.55   678.25     0  00:42        7.54
  5SB1                 JUNCTION     1.31     2.58   692.00     0  00:30        2.57
  5SB11                JUNCTION     2.22    11.33   686.33     0  00:32       11.32
  5SB14                JUNCTION     0.21     1.02   670.02     0  00:13        1.02
  5SB17                JUNCTION     0.22     0.94   669.04     0  00:21        0.94
  5SB21_OF             JUNCTION     9.66    11.17   674.17     0  01:03       11.17
  5SB23                JUNCTION     0.27     1.22   675.30     0  00:22        1.21
  5SB3                 JUNCTION     0.12     0.64   683.20     0  00:15        0.64
  5SB6                 JUNCTION     1.32     5.27   681.31     0  00:29        5.27
  5SB7_OF              JUNCTION     8.37     9.82   674.17     0  01:03        9.81
  5SB9_OF              JUNCTION     2.62     4.92   660.95     0  01:05        4.92
  6SB1                 JUNCTION     0.09     0.46   704.06     0  00:30        0.46
  6SB11                JUNCTION     1.68    11.06   690.56     0  00:30       11.06
  6SB14                JUNCTION     0.15     0.73   673.73     0  00:15        0.73
  6SB17                JUNCTION     0.58     2.09   668.29     0  00:30        2.09
  6SB3                 JUNCTION     0.12     0.65   680.18     0  00:12        0.65
  745                  JUNCTION     6.10     7.44   674.18     0  01:02        7.43
  747                  JUNCTION     2.41     5.31   664.68     0  01:04        5.30
  751                  JUNCTION     0.94     1.73   673.83     0  01:04        1.73
  754                  JUNCTION     0.90     6.39   686.39     0  00:22        6.37
  756                  JUNCTION     0.92     7.00   686.27     0  00:30        7.00
  757                  JUNCTION     1.24     7.25   689.53     0  00:23        7.22
  758                  JUNCTION     1.37     7.29   690.34     0  00:20        7.29
  7SB1                 JUNCTION     1.45     3.48   687.65     0  00:30        3.47
  7SB11                JUNCTION     1.00     6.91   691.51     0  00:29        6.91
  7SB14                JUNCTION     0.11     0.50   680.50     0  00:21        0.50
  7SB17                JUNCTION     0.18     0.86   669.06     0  00:14        0.85
  7SB3                 JUNCTION     1.36     4.92   679.27     0  00:39        4.92
  7SB6                 JUNCTION     0.78     6.90   685.90     0  00:27        6.88
  800                  JUNCTION     4.81     8.14   658.01     0  01:06        8.14
  802                  JUNCTION     4.83     6.79   652.19     0  01:08        6.78
  818                  JUNCTION     3.46     7.77   678.27     0  00:44        7.62
  822                  JUNCTION     4.47     6.91   675.98     0  00:46        6.89
  824                  JUNCTION     4.77     6.43   674.83     0  00:59        6.42
  8SB1                 JUNCTION     0.49     1.18   683.18     0  00:24        1.18
  8SB11                JUNCTION     0.96     5.07   692.12     0  00:23        5.06
  8SB14                JUNCTION     0.11     0.53   681.53     0  00:18        0.53
  8SB17                JUNCTION     0.18     0.84   671.14     0  00:15        0.84
  8SB3_OF              JUNCTION     3.76     7.50   677.58     0  00:44        7.38
  8SB6                 JUNCTION     0.74     6.46   684.46     0  00:29        6.46
  9SB1                 JUNCTION     1.68     2.42   683.13     0  00:23        2.40
  9SB11                JUNCTION     0.43     1.90   693.40     0  00:22        1.90
  9SB14                JUNCTION     0.34     1.50   669.50     0  00:24        1.50
  9SB17                JUNCTION     0.14     0.79   668.79     0  00:15        0.78
  O.15_UP              JUNCTION     6.05     7.68   651.68     0  01:08        7.67
  SB1018_OF            JUNCTION     2.40     5.78   659.05     0  01:06        5.77
  SB1216_OF            JUNCTION     3.09     6.49   654.29     0  01:07        6.46
  O.O_RM               OUTFALL     12.20    12.20   650.00     0  00:00       12.20
  1SB1                 STORAGE      1.95     4.02   708.47     0  01:13        4.01
  99                   STORAGE      4.93     6.03   688.03     0  00:40        6.01
  
  
  *******************
  Node Inflow Summary
  *******************
  
  -------------------------------------------------------------------------------------------------
                                  Maximum  Maximum                  Lateral       Total        Flow
                                  Lateral    Total  Time of Max      Inflow      Inflow     Balance
                                   Inflow   Inflow   Occurrence      Volume      Volume       Error
  Node                 Type           CFS      CFS  days hr:min    10^6 gal    10^6 gal     Percent
  -------------------------------------------------------------------------------------------------
  0.10_RM              JUNCTION      0.00  1313.89     0  01:09           0        68.6       6.335
  0.10_UP              JUNCTION    190.21  1316.82     0  01:08        4.85        69.8       1.817
  0.15_RM              JUNCTION      0.00  1251.96     0  01:08           0        65.4       0.667
  102                  JUNCTION   1499.38  1499.38     0  00:20        28.8        28.8       0.099
  1050                 JUNCTION      0.00   435.93     0  00:37           0        20.8       3.441
  10SB1                JUNCTION      0.00   197.76     0  00:26           0          12      -0.197
  10SB11               JUNCTION     19.04    37.83     0  00:12       0.357       0.702      -0.286
  10SB14               JUNCTION     16.74   115.48     0  00:23       0.486        2.82      -0.185
  10SB17               JUNCTION      9.34     9.34     0  00:21       0.267       0.267       2.820
  10SB6                JUNCTION     21.37   168.97     0  00:24       0.575        3.52      -0.707
  1118                 JUNCTION      0.00  2572.73     0  00:31           0        37.1      -0.385
  1119                 JUNCTION      0.00  2574.35     0  00:34           0        32.9       0.264
  1120                 JUNCTION      0.00  2854.88     0  00:29           0        27.9       0.419
  1121                 JUNCTION     36.00  1833.48     0  00:29       0.965        26.5       0.227
  1122                 JUNCTION      0.00  1166.24     0  00:28           0        26.5       0.228
  1123                 JUNCTION      0.00  1509.87     0  00:30           0        27.1       0.185
  1124                 JUNCTION      0.00  1866.57     0  00:30           0          28       0.124
  1125                 JUNCTION      0.00  1858.35     0  00:30           0        28.2       0.396
  1126                 JUNCTION      0.00  2002.45     0  00:36           0        27.3       0.598
  1127                 JUNCTION      0.00  1022.20     0  00:36           0        26.2       0.150
  1128                 JUNCTION      0.00   901.26     0  00:36           0          26       0.001
  11SB1                JUNCTION     15.65    15.65     0  00:21       0.356       0.356      -0.727
  11SB11               JUNCTION     17.75    17.75     0  00:12       0.346       0.346       0.061
  11SB14_OF            JUNCTION     58.10  1254.77     0  01:06        1.54        66.2       0.717
  11SB17               JUNCTION     12.01    12.01     0  00:12       0.228       0.228       0.528
  11SB6                JUNCTION     16.27   156.90     0  00:18       0.372        3.01       0.688
  12SB1                JUNCTION     12.34    12.34     0  00:21       0.309       0.309      -0.424
  12SB11               JUNCTION     17.74    17.74     0  00:21       0.408       0.408       1.252
  12SB6                JUNCTION     24.55    24.55     0  00:12       0.323       0.323       0.435
  13SB1                JUNCTION     17.63    81.70     0  00:21       0.366        1.96      -0.070
  13SB11               JUNCTION     39.58   257.58     0  00:25       0.821        6.42      -0.044
  13SB17               JUNCTION      2.06    72.33     0  00:48       0.105        2.59      -0.283
  13SB6                JUNCTION     26.90    74.44     0  00:16        0.61         1.5       0.191
  14SB1                JUNCTION     16.28    52.05     0  00:20       0.482        1.29       0.409
  14SB11               JUNCTION     20.65   232.03     0  00:23       0.503        5.63       0.585
  14SB17               JUNCTION      7.24    71.11     0  00:36       0.194        2.25      -0.472
  14SB6                JUNCTION      5.05    34.66     0  00:15       0.166       0.734       0.380
  15SB1                JUNCTION     10.34   217.82     0  00:22       0.209        5.24       0.399
  15SB11               JUNCTION     32.03   235.37     0  00:15       0.756        5.25       2.322
  15SB17               JUNCTION      0.00    65.39     0  00:30           0        1.81       0.919
  15SB6                JUNCTION     30.30    30.30     0  00:15       0.566       0.566      -0.397
  16SB1                JUNCTION      0.00   238.04     0  00:24           0        5.83      -0.127
  16SB11               JUNCTION     52.12   204.57     0  00:15        1.23        4.49      -0.012
  16SB17               JUNCTION      7.93     7.93     0  00:15       0.184       0.184       1.234
  16SB6                JUNCTION     21.81   115.39     0  00:17       0.428        2.31      -0.342
  17SB1                JUNCTION      0.00   295.09     0  00:31           0        15.6       0.027
  17SB11               JUNCTION    153.29   153.29     0  00:12        3.29        3.29       0.769
  17SB17               JUNCTION      8.94     8.94     0  00:21       0.315       0.315       2.009
  17SB6                JUNCTION     10.76    94.89     0  00:16       0.207        1.86      -1.257
  18SB1                JUNCTION      9.02   134.80     0  00:19       0.172        3.06      -0.113
  18SB17               JUNCTION      0.00    79.08     0  00:48           0        2.91       0.299
  18SB6                JUNCTION     10.14    85.22     0  00:15       0.215        1.65       0.145
  19SB1                JUNCTION     12.26    12.26     0  00:15       0.266       0.266      -0.523
  19SB17               JUNCTION      0.00   124.18     0  00:27           0        4.11      -0.127
  19SB6                JUNCTION     13.81    13.81     0  00:12       0.242       0.242       0.317
  1SB11_OF             JUNCTION      0.00   821.62     0  01:06           0        45.6       0.138
  1SB14                JUNCTION     10.83    10.83     0  00:12       0.184       0.184      -0.799
  1SB17_OF             JUNCTION      0.00  1175.37     0  01:05           0        61.4       0.115
  1SB19                JUNCTION     16.15    16.15     0  00:21       0.375       0.375       0.131
  1SB20                JUNCTION     10.91    10.91     0  00:21       0.252       0.252      -1.324
  1SB21                JUNCTION     10.99    10.99     0  00:15       0.194       0.194     -19.356
  1SB22                JUNCTION     10.60    10.60     0  00:15       0.224       0.224     -12.123
  1SB23                JUNCTION     20.14    20.14     0  00:15       0.419       0.419      -0.630
  1SB3_MIL             JUNCTION     19.60    19.60     0  00:10        1.41        1.41      -0.084
  1SB4                 JUNCTION      8.27     8.27     0  00:12       0.122       0.122      -0.419
  1SB5                 JUNCTION     15.42    15.42     0  00:15       0.286       0.286      -0.988
  1SB6_OF              JUNCTION      0.00  1129.76     0  00:38           0        56.5       2.611
  1SB7                 JUNCTION     12.37    12.37     0  00:12       0.245       0.245      -0.458
  1SB9                 JUNCTION     18.25    18.25     0  00:15       0.412       0.412      -0.022
  20SB1                JUNCTION     21.36    35.06     0  00:15       0.427       0.894      -0.180
  20SB6                JUNCTION     11.19    11.19     0  00:12       0.177       0.177       0.112
  21SB1                JUNCTION     22.72    36.44     0  00:15       0.527       0.807      -0.414
  21SB6                JUNCTION     12.48    12.48     0  00:15       0.234       0.234      -0.032
  22SB1                JUNCTION     13.81    13.81     0  00:15        0.28        0.28      -0.179
  22SB6                JUNCTION     15.91    28.25     0  00:15       0.282       0.516      -0.050
  23SB1                JUNCTION     15.64    15.64     0  00:21       0.468       0.468       0.145
  23SB6                JUNCTION     20.96    49.12     0  00:15       0.371       0.887      -0.110
  24SB1                JUNCTION     14.04    14.04     0  00:12       0.196       0.196      -0.033
  24SB6                JUNCTION     25.79    53.56     0  00:15       0.493        1.02       0.050
  25SB1                JUNCTION     23.29    23.29     0  00:21       0.585       0.585      -0.068
  25SB6                JUNCTION     19.74    27.90     0  00:15       0.391       0.528       0.046
  26SB1                JUNCTION     11.53    25.47     0  00:12       0.197       0.393       0.007
  26SB6                JUNCTION      8.40     8.40     0  00:12       0.137       0.137      -0.159
  27SB1                JUNCTION     13.97    39.27     0  00:12       0.245       0.638      -0.024
  28SB1                JUNCTION     20.81    58.23     0  00:15       0.507        1.14      -0.066
  29SB1                JUNCTION      0.00    80.30     0  00:15           0        1.73       0.043
  2SB1                 JUNCTION      5.27     5.27     0  00:30       0.214       0.214       0.092
  2SB11                JUNCTION     79.78   419.21     0  00:35         1.8          12       1.231
  2SB14                JUNCTION     32.21    42.67     0  00:15       0.705        0.89      -0.201
  2SB17                JUNCTION     21.06    57.21     0  00:20       0.509        1.21      -0.022
  2SB19                JUNCTION      3.36     3.36     0  00:30       0.113       0.113       0.065
  2SB20_OF             JUNCTION     18.61   909.85     0  01:02        0.33        48.3       5.771
  2SB21                JUNCTION      6.67    88.17     0  01:10       0.207        2.65      31.781
  2SB22                JUNCTION      5.37    10.00     0  01:28       0.196       0.356      72.230
  2SB23                JUNCTION     17.41    17.41     0  00:12       0.318       0.318      -0.887
  2SB2_MIL             JUNCTION      0.00  2053.80     0  00:43           0        32.4       0.465
  2SB3                 JUNCTION      8.37    53.40     0  00:15       0.132        1.95       0.260
  2SB4                 JUNCTION      5.08    13.20     0  00:12      0.0841       0.207       0.398
  2SB5                 JUNCTION      8.67     8.67     0  00:15       0.185       0.185      -0.742
  2SB6                 JUNCTION      0.00   287.14     0  00:30           0        7.03       1.467
  2SB7                 JUNCTION      4.54     4.54     0  00:15      0.0815      0.0815      -0.697
  2SB9                 JUNCTION      0.00    51.23     0  00:15           0        1.28      -0.311
  30SB1                JUNCTION      0.00   112.83     0  00:18           0        2.62       0.164
  31SB1                JUNCTION     21.95    21.95     0  00:21        0.62        0.62       0.500
  32SB1                JUNCTION      9.30   110.52     0  00:34       0.235         2.5       0.420
  33SB1                JUNCTION     11.32   144.55     0  00:37       0.227        4.29      -2.234
  34SB1                JUNCTION     18.64    18.64     0  00:21       0.471       0.471       0.615
  35SB1                JUNCTION     14.94    14.94     0  00:15       0.293       0.293      -1.299
  36SB1                JUNCTION      0.00    44.09     0  00:15           0        1.11       0.631
  37SB1                JUNCTION      9.54    35.14     0  00:17       0.172       0.815       0.232
  38SB1                JUNCTION      7.22    27.13     0  00:20       0.185        0.64      -0.354
  39SB1                JUNCTION     20.07    20.07     0  00:15       0.455       0.455      -0.140
  3SB1                 JUNCTION     12.90    18.18     0  00:21       0.328       0.542      -0.006
  3SB14                JUNCTION     13.73    49.63     0  00:21        0.28        1.17       0.513
  3SB17                JUNCTION     16.24    38.28     0  00:15       0.345       0.706       0.869
  3SB19                JUNCTION      0.00    19.11     0  00:21           0       0.487       0.080
  3SB21                JUNCTION      5.45   117.82     0  01:04       0.159        4.14       8.036
  3SB22                JUNCTION      0.00    66.61     0  01:15           0        1.94     114.399
  3SB23                JUNCTION     16.80    47.55     0  00:15       0.306       0.844       0.442
  3SB3                 JUNCTION      9.67    25.72     0  00:13        0.13       0.405       0.486
  3SB5                 JUNCTION      0.00    24.41     0  00:15           0       0.487       1.217
  3SB6                 JUNCTION     10.81    21.57     0  00:18       0.213       0.465       0.589
  3SB7                 JUNCTION      4.54    22.30     0  00:14       0.093       0.422      -0.143
  3SB9                 JUNCTION     11.10    34.58     0  00:15        0.26       0.871       0.293
  40SB1                JUNCTION     32.25   318.33     0  00:30         0.7        16.3      -0.392
  41SB1                JUNCTION     12.56   465.81     0  00:37       0.454        21.2       1.974
  42SB1                JUNCTION      0.00   280.14     0  00:32           0        20.4       5.352
  43SB1                JUNCTION     13.39    13.39     0  00:15       0.252       0.252     -19.451
  44SB1                JUNCTION      9.73     9.73     0  00:21       0.275       0.275       0.001
  45SB1                JUNCTION     11.51    21.78     0  00:17       0.247       0.522       0.165
  46SB1                JUNCTION     14.29   100.36     0  02:40        0.31        20.2       0.123
  47SB1                JUNCTION      0.00   100.40     0  02:39           0        20.2       0.153
  48SB1_OF             JUNCTION      0.00   818.07     0  00:45           0        28.9       0.381
  49SB1                JUNCTION     21.78    21.78     0  00:12       0.529       0.529       1.759
  4SB1                 JUNCTION     15.77    33.39     0  00:21       0.459           1      -0.042
  4SB11                JUNCTION     32.52   374.81     0  00:32       0.726        10.1      -0.363
  4SB14                JUNCTION     15.57    61.06     0  00:21        0.26        1.43      -0.084
  4SB17                JUNCTION     20.76    20.76     0  00:12       0.356       0.356      -1.365
  4SB19_OF             JUNCTION      7.47   795.38     0  01:04       0.108        43.6       0.124
  4SB21                JUNCTION      0.00   156.19     0  01:05           0           5      50.892
  4SB22_OF             JUNCTION      0.00   982.99     0  00:54           0        55.2       3.188
  4SB23                JUNCTION      9.99     9.99     0  00:15       0.216       0.216      -0.391
  4SB3                 JUNCTION      7.81     7.81     0  00:15       0.145       0.145      -1.273
  4SB5_OF              JUNCTION     11.61   923.34     0  00:45        0.15        50.4       0.458
  4SB6                 JUNCTION     10.94    10.94     0  00:15       0.248       0.248      -0.183
  4SB7                 JUNCTION      0.00    23.64     0  00:15           0       0.422       0.666
  4SB9                 JUNCTION     24.19    24.19     0  00:12        0.61        0.61      -0.269
  50SB1                JUNCTION      0.00    20.18     0  00:21           0        0.52       1.626
  51SB1                JUNCTION      5.76     5.76     0  00:12      0.0714      0.0714       0.496
  52SB1_OF             JUNCTION      0.00   836.40     0  00:44           0        28.7       0.254
  53SB1_OF             JUNCTION      0.00   968.36     0  00:36           0        26.5       0.142
  5SB1                 JUNCTION     30.55   115.52     0  00:30       0.696        10.1       0.061
  5SB11                JUNCTION     28.33   277.84     0  00:27       0.567        6.99      -0.255
  5SB14                JUNCTION      4.48    20.48     0  00:21       0.131       0.488      -0.229
  5SB17                JUNCTION     18.47    18.47     0  00:15       0.407       0.407      -1.164
  5SB21_OF             JUNCTION      0.00   959.22     0  00:59           0        52.2       8.039
  5SB23                JUNCTION      0.00    58.84     0  00:21           0        1.26       0.370
  5SB3                 JUNCTION      7.58     7.58     0  00:12       0.126       0.126      -1.644
  5SB6                 JUNCTION     13.02   268.06     0  00:30       0.244         6.5      -1.078
  5SB7_OF              JUNCTION     17.39   955.61     0  00:59       0.263        54.1       4.555
  5SB9_OF              JUNCTION      0.00   817.44     0  01:04           0        44.8       0.241
  6SB1                 JUNCTION      9.41     9.41     0  00:21       0.273       0.273       0.035
  6SB11                JUNCTION     21.44    96.02     0  00:29       0.603         2.4       0.259
  6SB14                JUNCTION     10.78    16.64     0  00:15       0.181       0.357      -0.018
  6SB17                JUNCTION     12.73    68.95     0  00:15       0.251        1.41       0.958
  6SB3                 JUNCTION      9.09     9.09     0  00:12       0.163       0.163      -2.173
  745                  JUNCTION      0.00   915.40     0  00:45           0        50.2       1.215
  747                  JUNCTION      0.00   785.89     0  01:04           0          43       0.045
  751                  JUNCTION      0.00   115.51     0  01:04           0        3.33       0.010
  754                  JUNCTION      0.00    72.87     0  00:20           0        1.49       0.328
  756                  JUNCTION      0.00   183.42     0  00:27           0        4.27      -0.004
  757                  JUNCTION      0.00   151.31     0  00:21           0        2.96       0.742
  758                  JUNCTION      0.00   150.20     0  00:19           0        2.99       0.889
  7SB1                 JUNCTION     19.06   140.74     0  00:29       0.447        10.8       0.074
  7SB11                JUNCTION     16.05    81.74     0  00:24       0.284        1.81       0.461
  7SB14                JUNCTION      6.68     6.68     0  00:21       0.176       0.176       0.038
  7SB17                JUNCTION     16.37    16.37     0  00:15       0.353       0.353      -0.701
  7SB3                 JUNCTION      0.00    41.46     0  00:31           0        2.11       0.209
  7SB6                 JUNCTION      8.55    80.50     0  00:22       0.184        1.67      -0.248
  800                  JUNCTION      0.00  1083.10     0  01:05           0        57.3       0.049
  802                  JUNCTION      0.00  1252.72     0  01:07           0        65.8       0.257
  818                  JUNCTION      0.00   933.56     0  00:36           0        26.5       0.153
  822                  JUNCTION      0.00   875.51     0  00:45           0        48.9       0.258
  824                  JUNCTION      0.00   870.76     0  00:46           0        48.8       0.486
  8SB1                 JUNCTION     13.55    13.55     0  00:15       0.404       0.404      -1.290
  8SB11                JUNCTION     14.41    68.68     0  00:20       0.186        1.54       0.867
  8SB14                JUNCTION      7.96     7.96     0  00:12       0.124       0.124       5.146
  8SB17                JUNCTION     17.35    17.35     0  00:15       0.393       0.393      -0.802
  8SB3_OF              JUNCTION      9.63   877.21     0  00:37       0.178        28.8       0.196
  8SB6                 JUNCTION     11.27   258.40     0  00:29       0.302        6.25       0.001
  9SB1                 JUNCTION     15.86   164.61     0  00:30       0.462        11.7       0.402
  9SB11                JUNCTION     10.70    50.27     0  00:14       0.244       0.949       0.318
  9SB14                JUNCTION     15.72    94.93     0  00:21         0.3        2.22       0.146
  9SB17                JUNCTION     11.41    11.41     0  00:12       0.235       0.235       1.237
  O.15_UP              JUNCTION      0.00  1252.17     0  01:07           0        65.6       0.318
  SB1018_OF            JUNCTION     73.25   824.64     0  01:05       0.952        45.6       0.131
  SB1216_OF            JUNCTION     42.67  1180.61     0  01:06       0.708        62.1       0.282
  O.O_RM               OUTFALL       0.00  1311.99     0  01:10           0        64.5       0.000
  1SB1                 STORAGE     633.94   633.94     0  00:15        9.42        9.42       0.045
  99                   STORAGE       0.00   461.52     0  00:20           0        4.87       0.241
  
  
  **********************
  Node Surcharge Summary
  **********************
  
  No nodes were surcharged.
  
  
  *********************
  Node Flooding Summary
  *********************
  
  No nodes were flooded.
  
  
  **********************
  Storage Volume Summary
  **********************
  
  ------------------------------------------------------------------------------------------------
                         Average    Avg   Evap  Exfil     Maximum    Max    Time of Max    Maximum
                          Volume   Pcnt   Pcnt   Pcnt      Volume   Pcnt     Occurrence    Outflow
  Storage Unit          1000 ftł   Full   Loss   Loss    1000 ftł   Full    days hr:min        CFS
  ------------------------------------------------------------------------------------------------
  1SB1                   444.852    2.7    0.0    0.0     952.797    5.8       0  01:13      63.98
  99                     490.201   54.3    0.0    0.0     631.377   70.0       0  00:40      10.97
  
  
  ***********************
  Outfall Loading Summary
  ***********************
  
  -----------------------------------------------------------
                         Flow       Avg       Max       Total
                         Freq      Flow      Flow      Volume
  Outfall Node           Pcnt       CFS       CFS    10^6 gal
  -----------------------------------------------------------
  O.O_RM                94.96    291.76   1311.99      64.471
  -----------------------------------------------------------
  System                94.96    291.76   1311.99      64.471
  
  
  ********************
  Link Flow Summary
  ********************
  
  -----------------------------------------------------------------------------
                                 Maximum  Time of Max   Maximum    Max/    Max/
                                  |Flow|   Occurrence   |Veloc|    Full    Full
  Link                 Type          CFS  days hr:min    ft/sec    Flow   Depth
  -----------------------------------------------------------------------------
  .13_NAT              CHANNEL   1249.97     0  01:08      5.24    0.01    0.31
  .21NAT               CHANNEL   1252.17     0  01:07      4.15    0.14    0.57
  0.06_NAT             CHANNEL   1311.99     0  01:10      0.72    0.03    0.35
  1051                 CHANNEL    435.93     0  00:37      1.96    0.01    0.29
  1087                 CHANNEL    115.08     0  01:04      6.20    0.00    0.21
  36INCH_1             CONDUIT     40.30     0  00:22      6.13    1.00    0.93
  36INCH_2             CONDUIT     42.91     0  00:27      6.51    1.17    0.90
  47OVRFLW             CHANNEL    782.00     0  01:04      3.01    0.03    0.09
  47PIPE               CONDUIT      4.60     0  00:44      6.61    3.46    1.00
  51OVRFLW             CHANNEL      0.00     0  00:00      0.00    0.00    0.00
  51_7X10_1            CONDUIT    457.70     0  00:45     11.08    1.22    1.00
  51_7X10_2            CONDUIT    457.70     0  00:45     11.08    1.22    1.00
  536                  CHANNEL     22.41     0  00:21      2.15    0.00    0.12
  537                  CHANNEL     49.06     0  00:30      2.48    0.00    0.14
  53_#7TRP             CONDUIT    819.47     0  00:45      3.11    0.32    0.35
  543                  CHANNEL     17.23     0  00:15      3.49    0.00    0.12
  544                  CHANNEL     11.12     0  00:15      3.03    0.00    0.07
  548                  CHANNEL     18.26     0  00:14      2.97    0.00    0.12
  549                  CHANNEL      7.73     0  00:16      2.82    0.00    0.07
  54INCH_1             CONDUIT     77.50     0  00:29      6.83    0.66    0.67
  54INCH_2             CONDUIT     95.17     0  00:30      8.90    0.88    0.64
  551                  CHANNEL     22.11     0  00:15      2.54    0.00    0.10
  552                  CHANNEL     36.27     0  00:19      3.79    0.00    0.10
  557                  CHANNEL     10.65     0  00:13      1.93    0.00    0.10
  558                  CHANNEL     37.32     0  00:22      2.46    0.00    0.13
  559                  CHANNEL     48.68     0  00:23      4.92    0.00    0.10
  55_5X12_1            CONDUIT    466.78     0  00:36      7.78    0.93    1.00
  55_5X12_2            CONDUIT    466.78     0  00:36      7.78    0.93    1.00
  55_OVRFLW            CHANNEL      0.00     0  00:00      0.00    0.00    0.02
  560                  CHANNEL     60.71     0  00:22      5.27    0.00    0.11
  561                  CHANNEL     92.68     0  00:23      6.42    0.00    0.12
  563                  CHANNEL      6.84     0  00:18      3.63    0.00    0.05
  564                  CHANNEL      6.63     0  00:21      2.82    0.00    0.05
  565                  CHANNEL     16.55     0  00:15      3.39    0.00    0.07
  566                  CHANNEL     20.99     0  00:16      2.35    0.00    0.10
  571                  CHANNEL     19.10     0  00:15      2.80    0.00    0.09
  572                  CHANNEL     39.66     0  00:14      3.06    0.00    0.13
  573                  CHANNEL     41.20     0  00:22      2.58    0.00    0.13
  582                  CHANNEL     17.54     0  00:21      5.68    0.00    0.07
  583                  CHANNEL     11.99     0  00:18      3.32    0.00    0.06
  591                  CHANNEL      8.29     0  00:12      1.99    0.00    0.07
  592                  CHANNEL     27.80     0  00:15      3.73    0.00    0.09
  593                  CHANNEL     53.23     0  00:15      6.90    0.00    0.09
  594                  CHANNEL     47.93     0  00:16      3.49    0.00    0.13
  595                  CHANNEL     28.17     0  00:15      2.86    0.00    0.10
  596                  CHANNEL     12.45     0  00:15      3.14    0.00    0.06
  597                  CHANNEL     30.03     0  00:15      5.41    0.01    0.18
  598                  CHANNEL     33.28     0  00:20      4.26    0.01    0.18
  601                  CHANNEL     28.62     0  00:12      4.16    0.01    0.21
  602                  CHANNEL     72.87     0  00:20      5.81    0.00    0.12
  604                  CHANNEL    270.43     0  00:30     10.24    0.06    0.48
  606                  CHANNEL     11.47     0  00:18      2.37    0.00    0.08
  607                  CHANNEL     20.88     0  00:18      3.44    0.00    0.15
  608                  CHANNEL     23.81     0  00:15      3.67    0.00    0.10
  609                  CHANNEL     33.53     0  00:21      2.85    0.00    0.11
  610                  CONDUIT     51.07     0  00:17      5.31    0.05    0.57
  612                  CHANNEL     12.56     0  00:14      2.88    0.00    0.08
  613                  CHANNEL     23.64     0  00:15      2.99    0.00    0.17
  615                  CHANNEL      5.51     0  00:13      1.53    0.00    0.07
  616                  CHANNEL     15.92     0  00:21      3.06    0.00    0.07
  618                  CHANNEL      3.31     0  00:30      2.51    0.00    0.04
  619                  CHANNEL     10.85     0  00:21      4.52    0.00    0.09
  620                  CHANNEL     10.89     0  00:15      4.54    0.00    0.28
  622                  CHANNEL    118.42     0  01:14      3.49    0.00    0.44
  623                  CHANNEL     85.20     0  01:10      2.42    0.00    0.51
  624                  CHANNEL     10.44     0  00:16      4.09    0.00    0.20
  626                  CHANNEL      8.39     0  02:07      3.09    0.00    0.32
  627                  CHANNEL     19.85     0  00:16      4.86    0.00    0.09
  628                  CHANNEL     58.58     0  00:22      6.03    0.00    0.15
  629                  CHANNEL     20.04     0  00:15      2.48    0.00    0.11
  630                  CHANNEL     39.27     0  00:21      2.74    0.00    0.12
  631                  CHANNEL     11.69     0  00:19      1.83    0.00    0.10
  632                  CHANNEL     15.86     0  00:15      4.11    0.00    0.08
  633                  CHANNEL     23.13     0  00:18      3.84    0.00    0.17
  634                  CHANNEL      8.58     0  00:16      3.61    0.00    0.08
  635                  CHANNEL      8.14     0  00:12      3.12    0.00    0.07
  636                  CHANNEL     12.66     0  00:15      2.41    0.00    0.07
  637                  CHANNEL      8.92     0  00:12      2.81    0.00    0.14
  641                  CHANNEL      8.41     0  00:18      2.15    0.00    0.08
  642                  CHANNEL     26.26     0  00:15      2.42    0.00    0.18
  643                  CHANNEL      8.75     0  00:15      2.08    0.00    0.08
  644                  CONDUIT     63.98     0  01:13      9.46    1.09    0.93
  647                  CHANNEL    183.83     0  00:28      2.73    0.01    0.21
  650                  CHANNEL    317.93     0  00:32      2.08    0.04    0.26
  655                  CONDUIT      5.64     0  00:30      2.42    0.11    0.31
  656                  CONDUIT     17.69     0  00:21      4.44    0.38    0.43
  657                  CONDUIT     33.27     0  00:21      6.86    0.40    0.58
  658                  CHANNEL     14.18     0  00:19      2.35    0.00    0.09
  659                  CHANNEL     77.27     0  00:24      2.54    0.00    0.16
  660                  CHANNEL    216.38     0  00:24      3.82    0.01    0.21
  662                  CHANNEL     13.74     0  00:15      3.54    0.00    0.08
  663                  CHANNEL     36.31     0  00:18      3.67    0.00    0.10
  664                  CHANNEL     51.44     0  00:22      4.51    0.00    0.11
  665                  CHANNEL     15.49     0  00:21      3.16    0.00    0.07
  666                  CHANNEL     34.80     0  00:21      4.55    0.00    0.13
  667                  CHANNEL     13.97     0  00:12      4.78    0.00    0.06
  668                  CHANNEL     25.36     0  00:12      4.39    0.00    0.08
  669                  CHANNEL     39.02     0  00:12      4.35    0.00    0.10
  670                  CHANNEL     58.17     0  00:15      5.94    0.00    0.11
  671                  CHANNEL     78.21     0  00:17      4.44    0.00    0.15
  672                  CHANNEL    112.61     0  00:20      4.36    0.00    0.16
  673                  CHANNEL    132.55     0  00:21      4.67    0.00    0.18
  674                  CHANNEL     23.17     0  00:21      4.31    0.00    0.10
  675                  CHANNEL     13.77     0  00:18      2.39    0.00    0.11
  676                  CONDUIT      8.73     0  00:30      3.13    0.00    0.09
  677                  CHANNEL     14.05     0  00:13      1.81    0.00    0.15
  678                  CHANNEL     17.48     0  00:20      3.19    0.00    0.15
  679                  CHANNEL     21.72     0  00:22      3.75    0.00    0.14
  680                  CHANNEL     20.09     0  00:16      3.57    0.00    0.08
  681                  CHANNEL     26.82     0  00:21      3.32    0.00    0.13
  682                  CHANNEL     28.39     0  00:19      2.35    0.00    0.24
  684                  CHANNEL    141.48     0  00:39      1.19    0.06    0.74
  685                  CHANNEL     17.17     0  00:15      3.08    0.00    0.21
  686                  CHANNEL    103.13     0  00:37      3.28    0.01    0.17
  687                  CHANNEL     18.44     0  00:21      4.60    0.00    0.06
  688                  CHANNEL      0.00     0  00:00      0.00    0.00    0.00
  690                  CHANNEL      0.00     0  00:00      0.00    0.00    0.03
  691CHAN              CHANNEL     10.89     0  00:49      1.56    0.00    0.09
  691PIPE              CONDUIT    100.66     0  02:58      5.75    0.87    1.00
  694                  CHANNEL     13.28     0  00:15      4.98    0.00    0.23
  695                  CHANNEL     10.88     0  00:21      2.04    0.00    0.08
  696                  CHANNEL     20.05     0  00:22      2.92    0.00    0.09
  700CHAN              CHANNEL      0.00     0  00:00      0.00    0.00    0.00
  700PIPE              CONDUIT    123.82     0  00:27      9.85    2.92    1.00
  701CHAN              CHANNEL     37.60     0  00:24      3.45    0.00    0.06
  701PIPE              CONDUIT     16.48     0  00:58      6.97    1.20    1.00
  702                  CHANNEL    831.87     0  00:37      4.48    0.11    0.42
  702CHAN              CHANNEL      0.00     0  00:00      0.00    0.00    0.00
  702PIPE              CONDUIT     79.25     0  00:48      8.24    1.54    1.00
  703                  CHANNEL    834.99     0  00:44      4.56    0.09    0.42
  704                  CHANNEL    813.06     0  00:45      5.25    0.10    0.38
  704CHAN              CHANNEL      0.00     0  00:00      0.00    0.00    0.00
  704PIPE              CONDUIT     72.43     0  00:49      7.53    1.41    1.00
  705                  CHANNEL    870.76     0  00:46      5.09    0.08    0.32
  705CHAN              CHANNEL      0.00     0  00:00      0.00    0.00    0.00
  705PIPE              CONDUIT     12.01     0  00:14      6.91    1.67    1.00
  706CHAN              CHANNEL     13.89     0  00:49      1.45    0.00    0.05
  706PIPE              CONDUIT     58.26     0  01:11      6.07    1.34    1.00
  707CHAN              CHANNEL      3.42     0  00:30      1.78    0.00    0.04
  707PIPE              CONDUIT      6.75     0  00:13      5.54    1.19    1.00
  707_MODIFY           CHANNEL    982.99     0  00:54    >50.00    0.01    0.36
  708CHAN              CHANNEL     37.38     0  00:42      1.63    0.00    0.08
  708PIPE              CONDUIT     48.70     0  00:16      6.89    1.38    1.00
  708_MODIFY           CHANNEL    943.48     0  00:59      5.70    0.01    0.38
  709_MODIFY           CHANNEL    959.22     0  00:59      5.39    0.01    0.42
  710_MODIFY           CHANNEL    905.34     0  01:02      1.89    0.01    0.46
  712                  CHANNEL    794.18     0  01:04      7.46    0.02    0.24
  713                  CHANNEL    817.39     0  01:05      6.33    0.02    0.21
  714                  CHANNEL    821.62     0  01:06      4.05    0.02    0.26
  717                  CHANNEL   1179.14     0  01:07      4.36    0.22    0.49
  740CHAN              CHANNEL     59.81     0  00:27      3.39    0.00    0.07
  740PIPE              CONDUIT     54.87     0  00:13      7.79    1.27    1.00
  746_MODIFY           CHANNEL    872.48     0  00:38      2.99    0.01    0.33
  748                  CHANNEL    785.73     0  01:04      5.35    0.03    0.28
  750                  CHANNEL     63.53     0  01:15      2.33    0.00    0.43
  750C                 CONDUIT      1.61     0  00:30      1.45    0.00    0.06
  750P                 CONDUIT      6.87     0  00:23      5.67    1.55    1.00
  753                  CHANNEL    111.41     0  01:04      2.09    0.00    0.20
  762                  CHANNEL     10.48     0  00:15      2.16    0.00    0.07
  768CHAN              CHANNEL    218.15     0  00:38      5.08    0.01    0.11
  768PIPE              CONDUIT    193.74     0  00:50     12.31    1.35    1.00
  769CHAN              CHANNEL    232.20     0  00:36      4.66    0.01    0.12
  769PIPE              CONDUIT    149.02     0  01:27      9.37    1.31    1.00
  770CHAN              CHANNEL    189.77     0  00:33      3.54    0.01    0.13
  770PIPE              CONDUIT    103.68     0  01:35      8.25    1.23    1.00
  771CHAN              CHANNEL    169.50     0  00:27      3.94    0.01    0.12
  771PIPE              CONDUIT     97.92     0  00:10      9.17    1.14    1.00
  772CHAN              CHANNEL    164.99     0  00:25      4.12    0.01    0.11
  772PIPE              CONDUIT     80.77     0  00:11      8.39    1.30    1.00
  773CHAN              CHANNEL    160.90     0  00:23      3.14    0.01    0.12
  773PIPE              CONDUIT     90.78     0  00:08      9.47    1.77    1.00
  774CHAN              CHANNEL    144.91     0  00:15      3.89    0.01    0.12
  774PIPE              CONDUIT     83.66     0  00:07      8.70    1.71    1.00
  775CHAN              CHANNEL    104.53     0  00:13      3.20    0.01    0.10
  775PIPE              CONDUIT     76.61     0  00:07      7.96    1.58    1.00
  780CHAN              CHANNEL     38.35     0  00:30      1.65    0.00    0.09
  780PIPE              CONDUIT     57.24     0  00:24      8.10    1.24    1.00
  781CHAN              CHANNEL     49.32     0  00:29      2.10    0.00    0.08
  781PIPE              CONDUIT     47.29     0  00:14      7.61    0.77    1.00
  782CHAN              CHANNEL     60.83     0  00:25      1.79    0.01    0.10
  782PIPE              CONDUIT     24.50     0  00:14      6.31    1.59    1.00
  789OF                CONDUIT      2.93     0  00:29      2.46    0.00    0.07
  789PIPE              CONDUIT    255.48     0  00:30     20.33    1.27    1.00
  801                  CHANNEL   1083.00     0  01:06      7.29    0.08    0.34
  803CHAN              CHANNEL     29.15     0  00:27      3.28    0.00    0.10
  803PIPE              CONDUIT     71.03     0  00:17     10.08    2.07    1.00
  804CHAN              CHANNEL     57.44     0  00:23      3.39    0.00    0.15
  804PIPE              CONDUIT     33.73     0  00:12      6.87    1.81    1.00
  805OF                CONDUIT      1.81     0  00:59      0.16    0.00    0.29
  805PIPE1             CONDUIT     77.12     0  00:33     12.06    0.95    1.00
  805PIPE2             CONDUIT    204.99     0  00:32     14.02    1.05    1.00
  810CHAN              CHANNEL     75.62     0  00:30      3.17    0.00    0.08
  810PIPE1             CONDUIT     94.03     0  00:47      7.48    1.55    1.00
  810PIPE2             CONDUIT     40.78     0  00:47      5.77    1.55    1.00
  811CHAN              CHANNEL    108.43     0  00:28      3.06    0.01    0.10
  811PIPE              CONDUIT     77.24     0  01:00      8.14    1.82    1.00
  812CHAN              CHANNEL    119.17     0  00:24      3.05    0.01    0.11
  812PIPE              CONDUIT     46.99     0  01:15      6.65    1.67    1.00
  813CHAN              CHANNEL    132.69     0  00:21      3.19    0.01    0.11
  813PIPE              CONDUIT     37.62     0  00:12      7.66    2.17    1.00
  814CHAN              CHANNEL    140.59     0  00:19      3.06    0.01    0.11
  814PIPE              CONDUIT     21.71     0  00:09      6.91    2.27    1.00
  815CHAN              CHANNEL     96.63     0  00:19      2.71    0.00    0.10
  815PIPE1             CONDUIT     11.71     0  00:12      3.73    0.95    1.00
  815PIPE2             CONDUIT     12.53     0  00:12      3.99    0.95    1.00
  816CHAN              CHANNEL     72.23     0  00:17      3.73    0.00    0.07
  816PIPE              CONDUIT     22.44     0  00:11      7.14    1.06    1.00
  817CHAN              CHANNEL     50.43     0  00:16      3.73    0.00    0.06
[...]
  685                     1.00   0.00  0.00  0.00  0.99  0.01  0.00  0.00  0.75  0.00
  686                     1.00   0.00  0.00  0.00  0.52  0.00  0.00  0.48  0.27  0.00
  687                     1.00   0.00  0.00  0.00  0.56  0.01  0.00  0.43  0.57  0.00
  688                     1.00   1.00  0.00  0.00  0.00  0.00  0.00  0.00  0.00  0.00
  690                     1.00   0.90  0.10  0.00  0.00  0.00  0.00  0.00  0.00  0.00
  691CHAN                 1.00   0.86  0.04  0.00  0.10  0.00  0.00  0.00  0.87  0.00
  691PIPE                 1.00   0.00  0.00  0.00  0.99  0.01  0.00  0.00  0.00  0.00
  694                     1.00   0.00  0.00  0.00  0.98  0.02  0.00  0.00  0.98  0.00
  695                     1.00   0.00  0.00  0.00  1.00  0.00  0.00  0.00  0.71  0.00
  696                     1.00   0.00  0.00  0.00  0.00  0.00  0.00  1.00  0.00  0.00
  700CHAN                 1.00   1.00  0.00  0.00  0.00  0.00  0.00  0.00  0.00  0.00
  700PIPE                 1.00   0.00  0.00  0.00  1.00  0.00  0.00  0.00  0.00  0.00
  701CHAN                 1.00   0.88  0.00  0.00  0.00  0.00  0.00  0.12  0.00  0.00
  701PIPE                 1.00   0.00  0.00  0.00  0.03  0.00  0.00  0.97  0.00  0.00
  702                     1.00   0.00  0.01  0.00  0.99  0.00  0.00  0.00  0.00  0.00
  702CHAN                 1.00   1.00  0.00  0.00  0.00  0.00  0.00  0.00  0.00  0.00
  702PIPE                 1.00   0.00  0.00  0.00  0.98  0.00  0.00  0.02  0.67  0.00
  703                     1.00   0.00  0.00  0.00  1.00  0.00  0.00  0.00  0.00  0.00
  704                     1.00   0.00  0.00  0.00  1.00  0.00  0.00  0.00  0.00  0.00
  704CHAN                 1.00   1.00  0.00  0.00  0.00  0.00  0.00  0.00  0.00  0.00
  704PIPE                 1.00   0.00  0.00  0.00  0.99  0.01  0.00  0.00  0.03  0.00
  705                     1.00   0.00  0.00  0.00  0.99  0.00  0.00  0.00  0.00  0.00
  705CHAN                 1.00   1.00  0.00  0.00  0.00  0.00  0.00  0.00  0.00  0.00
  705PIPE                 1.00   0.00  0.00  0.00  0.13  0.00  0.00  0.87  0.00  0.00
  706CHAN                 1.00   0.92  0.00  0.00  0.00  0.00  0.00  0.08  0.00  0.00
  706PIPE                 1.00   0.00  0.00  0.00  0.14  0.00  0.00  0.86  0.00  0.00
  707CHAN                 1.00   0.90  0.00  0.00  0.08  0.00  0.00  0.03  0.94  0.00
  707PIPE                 1.00   0.00  0.00  0.00  0.13  0.00  0.00  0.87  0.01  0.00
  707_MODIFY              1.00   0.00  0.00  0.00  0.99  0.01  0.00  0.00  0.00  0.00
  708CHAN                 1.00   0.88  0.00  0.00  0.05  0.00  0.00  0.07  0.00  0.00
  708PIPE                 1.00   0.00  0.00  0.00  0.14  0.00  0.00  0.86  0.00  0.00
  708_MODIFY              1.00   0.00  0.01  0.00  0.99  0.00  0.00  0.00  0.00  0.00
  709_MODIFY              1.00   0.00  0.00  0.00  1.00  0.00  0.00  0.00  0.00  0.00
  710_MODIFY              1.00   0.00  0.00  0.00  1.00  0.00  0.00  0.00  0.02  0.00
  712                     1.00   0.00  0.00  0.00  1.00  0.00  0.00  0.00  0.00  0.00
  713                     1.00   0.00  0.00  0.00  1.00  0.00  0.00  0.00  0.02  0.00
  714                     1.00   0.00  0.00  0.00  1.00  0.00  0.00  0.00  0.02  0.00
  717                     1.00   0.00  0.00  0.00  1.00  0.00  0.00  0.00  0.00  0.00
  740CHAN                 1.00   0.88  0.00  0.00  0.00  0.00  0.00  0.12  0.00  0.00
  740PIPE                 1.00   0.00  0.00  0.00  0.98  0.02  0.00  0.00  0.84  0.00
  746_MODIFY              1.00   0.00  0.00  0.00  1.00  0.00  0.00  0.00  0.00  0.00
  748                     1.00   0.00  0.01  0.00  0.99  0.00  0.00  0.00  0.02  0.00
  750                     1.00   0.00  0.01  0.00  0.99  0.00  0.00  0.00  0.01  0.00
  750C                    1.00   0.91  0.00  0.00  0.00  0.00  0.00  0.09  0.00  0.00
  750P                    1.00   0.00  0.00  0.00  0.10  0.00  0.00  0.90  0.00  0.00
  753                     1.00   0.01  0.00  0.00  0.93  0.00  0.00  0.07  0.00  0.00
  762                     1.00   0.00  0.00  0.00  0.00  0.00  0.00  1.00  0.00  0.00
  768CHAN                 1.00   0.88  0.00  0.00  0.00  0.00  0.00  0.12  0.00  0.00
  768PIPE                 1.00   0.00  0.00  0.00  0.94  0.00  0.00  0.06  0.81  0.00
  769CHAN                 1.00   0.87  0.00  0.00  0.00  0.00  0.00  0.13  0.00  0.00
  769PIPE                 1.00   0.00  0.00  0.00  0.90  0.10  0.00  0.00  0.00  0.00
  770CHAN                 1.00   0.85  0.00  0.00  0.09  0.00  0.00  0.06  0.00  0.00
  770PIPE                 1.00   0.00  0.00  0.00  0.18  0.00  0.00  0.82  0.00  0.00
  771CHAN                 1.00   0.85  0.02  0.00  0.11  0.00  0.00  0.01  0.94  0.00
  771PIPE                 1.00   0.00  0.00  0.00  0.99  0.01  0.00  0.00  0.41  0.00
  772CHAN                 1.00   0.87  0.00  0.00  0.10  0.00  0.00  0.03  0.01  0.00
  772PIPE                 1.00   0.00  0.00  0.00  0.17  0.00  0.00  0.83  0.00  0.00
  773CHAN                 1.00   0.86  0.00  0.00  0.11  0.00  0.00  0.02  0.85  0.00
  773PIPE                 1.00   0.00  0.00  0.00  0.99  0.00  0.00  0.00  0.08  0.00
  774CHAN                 1.00   0.86  0.02  0.00  0.11  0.00  0.00  0.01  0.96  0.00
  774PIPE                 1.00   0.00  0.01  0.00  0.99  0.00  0.00  0.00  0.03  0.00
  775CHAN                 1.00   0.88  0.01  0.00  0.11  0.00  0.00  0.01  0.88  0.00
  775PIPE                 1.00   0.00  0.00  0.00  1.00  0.00  0.00  0.00  0.04  0.00
  780CHAN                 1.00   0.87  0.05  0.00  0.08  0.00  0.00  0.00  0.96  0.00
  780PIPE                 1.00   0.00  0.00  0.00  0.15  0.00  0.00  0.84  0.01  0.00
  781CHAN                 1.00   0.90  0.00  0.00  0.00  0.00  0.00  0.10  0.00  0.00
  781PIPE                 1.00   0.00  0.00  0.00  0.98  0.02  0.00  0.00  0.87  0.00
  782CHAN                 1.00   0.87  0.00  0.00  0.08  0.00  0.00  0.05  0.00  0.00
  782PIPE                 1.00   0.00  0.00  0.00  0.12  0.00  0.00  0.88  0.00  0.00
  789OF                   1.00   0.98  0.00  0.00  0.00  0.00  0.00  0.02  0.00  0.00
  789PIPE                 1.00   0.00  0.00  0.00  0.95  0.05  0.00  0.00  0.94  0.00
  801                     1.00   0.00  0.00  0.00  1.00  0.00  0.00  0.00  0.00  0.00
  803CHAN                 1.00   0.94  0.00  0.00  0.00  0.00  0.00  0.06  0.00  0.00
  803PIPE                 1.00   0.00  0.00  0.00  1.00  0.00  0.00  0.00  0.04  0.00
  804CHAN                 1.00   0.91  0.00  0.00  0.04  0.00  0.00  0.04  0.00  0.00
  804PIPE                 1.00   0.00  0.00  0.00  1.00  0.00  0.00  0.00  0.01  0.00
  805OF                   1.00   0.08  0.90  0.00  0.03  0.00  0.00  0.00  0.90  0.00
  805PIPE1                1.00   0.00  0.01  0.00  0.94  0.04  0.00  0.00  0.05  0.00
  805PIPE2                1.00   0.00  0.00  0.00  0.93  0.00  0.00  0.07  0.00  0.00
  810CHAN                 1.00   0.95  0.00  0.00  0.00  0.00  0.00  0.05  0.00  0.00
  810PIPE1                1.00   0.00  0.00  0.00  1.00  0.00  0.00  0.00  0.01  0.00
  810PIPE2                1.00   0.00  0.00  0.00  1.00  0.00  0.00  0.00  0.01  0.00
  811CHAN                 1.00   0.91  0.00  0.00  0.00  0.00  0.00  0.09  0.00  0.00
  811PIPE                 1.00   0.00  0.00  0.00  0.99  0.01  0.00  0.00  0.00  0.00
  812CHAN                 1.00   0.89  0.00  0.00  0.07  0.00  0.00  0.05  0.00  0.00
  812PIPE                 1.00   0.00  0.00  0.00  1.00  0.00  0.00  0.00  0.23  0.00
  813CHAN                 1.00   0.87  0.00  0.00  0.10  0.00  0.00  0.03  0.00  0.00
  813PIPE                 1.00   0.00  0.00  0.00  1.00  0.00  0.00  0.00  0.00  0.00
  814CHAN                 1.00   0.84  0.00  0.00  0.12  0.00  0.00  0.04  0.00  0.00
  814PIPE                 1.00   0.00  0.00  0.00  1.00  0.00  0.00  0.00  0.00  0.00
  815CHAN                 1.00   0.84  0.02  0.00  0.14  0.00  0.00  0.00  0.90  0.00
  815PIPE1                1.00   0.00  0.00  0.00  1.00  0.00  0.00  0.00  0.51  0.00
  815PIPE2                1.00   0.00  0.00  0.00  1.00  0.00  0.00  0.00  0.80  0.00
  816CHAN                 1.00   0.86  0.02  0.00  0.11  0.02  0.00  0.00  0.98  0.00
  816PIPE                 1.00   0.00  0.00  0.00  0.19  0.81  0.00  0.00  0.36  0.00
  817CHAN                 1.00   0.88  0.03  0.00  0.06  0.03  0.00  0.00  0.98  0.00
  817PIPE                 1.00   0.00  0.00  0.00  0.82  0.18  0.00  0.00  0.43  0.00
  825                     1.00   0.00  0.01  0.00  0.99  0.00  0.00  0.00  0.01  0.00
  825OF                   1.00   0.53  0.43  0.00  0.00  0.00  0.05  0.00  0.00  0.00
  825PIPE                 1.00   0.01  0.00  0.00  0.98  0.02  0.00  0.00  0.04  0.00
  826                     1.00   0.00  0.63  0.00  0.37  0.00  0.00  0.00  0.64  0.00
  826OF                   1.00   0.08  0.45  0.00  0.28  0.00  0.19  0.00  0.70  0.00
  826PIPE                 1.00   0.00  0.00  0.00  0.97  0.02  0.00  0.00  0.00  0.00
  827OF                   1.00   0.86  0.14  0.00  0.00  0.00  0.00  0.00  0.00  0.00
  827PIPE                 1.00   0.00  0.00  0.00  0.91  0.00  0.00  0.08  0.91  0.00
  830OF                   1.00   0.93  0.00  0.00  0.00  0.00  0.00  0.07  0.00  0.00
  830PIPE                 1.00   0.00  0.28  0.00  0.06  0.67  0.00  0.00  0.42  0.00
  831OF                   1.00   0.05  0.95  0.00  0.00  0.00  0.00  0.00  0.00  0.00
  831PIPE                 1.00   0.00  0.01  0.00  0.98  0.02  0.00  0.00  0.81  0.00
  838CHAN                 1.00   0.72  0.00  0.00  0.08  0.02  0.00  0.18  0.10  0.00
  838OF                   1.00   0.80  0.00  0.00  0.05  0.01  0.00  0.14  0.06  0.00
  838PIP                  1.00   0.00  0.00  0.00  0.93  0.00  0.00  0.07  0.67  0.00
  838PIPE                 1.00   0.00  0.00  0.00  0.99  0.01  0.00  0.00  0.04  0.00
  839CHAN                 1.00   0.69  0.01  0.00  0.30  0.00  0.00  0.00  0.99  0.00
  839PIPE                 1.00   0.00  0.57  0.00  0.43  0.01  0.00  0.00  0.69  0.00
  848CHAN                 1.00   0.88  0.00  0.00  0.00  0.00  0.00  0.12  0.00  0.00
  848PIPE                 1.00   0.00  0.00  0.00  1.00  0.00  0.00  0.00  0.00  0.00
  849_1                   1.00   0.00  0.01  0.00  0.99  0.00  0.00  0.00  0.00  0.00
  849_2                   1.00   0.00  0.01  0.00  0.99  0.00  0.00  0.00  0.00  0.00
  849_TRAP                1.00   0.97  0.00  0.00  0.00  0.00  0.00  0.03  0.00  0.00
  853OF                   1.00   0.01  0.38  0.00  0.60  0.00  0.00  0.00  0.00  0.00
  853PIPE                 1.00   0.00  0.00  0.00  1.00  0.00  0.00  0.00  0.00  0.00
  854OF                   1.00   0.01  0.00  0.00  0.09  0.00  0.00  0.89  0.00  0.00
  861_1                   1.00   0.00  0.00  0.00  1.00  0.00  0.00  0.00  0.00  0.00
  861_2                   1.00   0.00  0.00  0.00  1.00  0.00  0.00  0.00  0.00  0.00
  861_TRAP                1.00   0.95  0.00  0.00  0.00  0.00  0.00  0.05  0.00  0.00
  883CULV                 1.00   0.00  0.00  0.00  1.00  0.00  0.00  0.00  0.76  0.00
  883OF                   1.00   0.50  0.32  0.00  0.04  0.00  0.00  0.13  0.80  0.00
  889CHAN                 1.00   0.81  0.19  0.00  0.00  0.00  0.00  0.00  0.00  0.00
  889PIPE                 1.00   0.00  0.49  0.00  0.49  0.00  0.00  0.03  0.84  0.00
  892CHAN                 1.00   1.00  0.00  0.00  0.00  0.00  0.00  0.00  0.00  0.00
  892PIPE                 1.00   0.00  0.01  0.00  0.99  0.00  0.00  0.00  0.01  0.00
  893CHAN                 1.00   0.90  0.10  0.00  0.00  0.00  0.00  0.00  0.00  0.00
  893PIPE                 1.00   0.00  0.00  0.00  1.00  0.00  0.00  0.00  0.00  0.00
  BRADBOX                 1.00   0.00  0.00  0.00  0.91  0.09  0.00  0.00  0.93  0.00
  BRADBOXOV               1.00   1.00  0.00  0.00  0.00  0.00  0.00  0.00  0.00  0.00
  BRADLEYIN               1.00   0.00  0.00  0.00  0.16  0.06  0.78  0.00  0.04  0.00
  BRAD_OUT                1.00   0.00  0.00  0.00  0.22  0.78  0.00  0.00  0.02  0.00
  DEANOVER                1.00   1.00  0.00  0.00  0.00  0.00  0.00  0.00  0.00  0.00
  DEANPIPE1               1.00   0.00  0.00  0.00  1.00  0.00  0.00  0.00  0.01  0.00
  DEANPIPE2               1.00   0.00  0.00  0.00  1.00  0.00  0.00  0.00  0.01  0.00
  DEERWPIPE               1.00   0.01  0.00  0.00  0.99  0.00  0.00  0.00  0.00  0.00
  DEER_OVR                1.00   1.00  0.00  0.00  0.00  0.00  0.00  0.00  0.00  0.00
  GBPIPE                  1.00   0.00  0.00  0.00  1.00  0.00  0.00  0.00  0.00  0.00
  GB_OVER                 1.00   1.00  0.00  0.00  0.00  0.00  0.00  0.00  0.00  0.00
  LIB_1                   1.00   0.00  0.00  0.00  0.97  0.03  0.00  0.00  0.82  0.00
  LIB_10                  1.00   0.02  0.00  0.00  0.98  0.00  0.00  0.00  0.00  0.00
  LIB_12                  1.00   0.02  0.00  0.00  0.98  0.00  0.00  0.00  0.00  0.00
  LIB_2                   1.00   0.00  0.00  0.00  1.00  0.00  0.00  0.00  0.00  0.00
  LIB_3                   1.00   0.00  0.00  0.00  1.00  0.00  0.00  0.00  0.00  0.00
  LIB_4                   1.00   0.00  0.00  0.00  1.00  0.00  0.00  0.00  0.00  0.00
  LIB_5                   1.00   0.00  0.00  0.00  1.00  0.00  0.00  0.00  0.00  0.00
  LIB_6                   1.00   0.00  0.00  0.00  1.00  0.00  0.00  0.00  0.00  0.00
  LIB_7                   1.00   0.00  0.00  0.00  1.00  0.00  0.00  0.00  0.00  0.00
  LIB_8                   1.00   0.01  0.00  0.00  0.99  0.00  0.00  0.00  0.00  0.00
  LIB_9                   1.00   0.01  0.00  0.00  0.99  0.00  0.00  0.00  0.00  0.00
  PATH_OV                 1.00   0.03  0.00  0.00  0.97  0.00  0.00  0.00  0.00  0.00
  PATH_PIPE               1.00   0.00  0.00  0.00  0.99  0.01  0.00  0.00  0.00  0.00
  S_CONFIG2               1.00   0.01  0.00  0.00  0.99  0.00  0.00  0.00  0.01  0.00
  TEUTPIPE1               1.00   0.00  0.01  0.00  0.99  0.00  0.00  0.00  0.00  0.00
  TEUT_OVF                1.00   1.00  0.00  0.00  0.00  0.00  0.00  0.00  0.00  0.00
  
  
  *************************
  Conduit Surcharge Summary
  *************************
  
  ----------------------------------------------------------------------------
                                                           Hours        Hours 
                         --------- Hours Full --------   Above Full   Capacity
  Conduit                Both Ends  Upstream  Dnstream   Normal Flow   Limited
  ----------------------------------------------------------------------------
  36INCH_1                    0.01      0.01      0.52      0.06         0.01
  36INCH_2                    0.01      0.52      0.01      0.87         0.01
  47PIPE                      8.24      8.85      8.24      8.75         8.24
  51_7X10_1                   0.66      0.66      0.79      0.55         0.21
  51_7X10_2                   0.66      0.66      0.79      0.55         0.21
  55_5X12_1                   1.31      1.31      1.39      0.01         0.22
  55_5X12_2                   1.31      1.31      1.39      0.01         0.22
  644                         0.01      2.22      0.01      2.99         0.01
  691PIPE                     1.34      1.34      1.62      0.01         0.01
  700PIPE                     1.37      1.57      1.47      1.31         1.05
  701PIPE                     0.17      1.28      0.17      1.30         0.17
  702PIPE                     1.21      1.22      1.43      1.18         1.13
  704PIPE                     1.20      1.20      1.22      1.14         1.11
  705PIPE                     1.14      1.24      1.17      0.42         0.30
  706PIPE                     1.14      1.15      1.16      1.14         1.10
  707PIPE                     1.07      1.15      1.17      0.25         0.16
  708PIPE                     1.12      1.14      1.15      0.26         0.23
  740PIPE                     1.12      1.15      8.76      1.08         1.04
  750P                        0.85      1.10      0.85      1.11         0.85
  768PIPE                     0.79      1.45      0.88      1.48         0.78
  769PIPE                     1.45      1.49      1.45      1.52         1.45
  770PIPE                     1.48      1.50      1.49      0.27         0.22
  771PIPE                     1.46      1.48      1.50      0.34         0.31
  772PIPE                     1.42      1.44      1.48      1.19         1.16
  773PIPE                     1.41      1.45      1.44      0.78         0.73
  774PIPE                     1.42      1.43      1.45      1.15         1.13
  775PIPE                     1.40      1.40      1.43      0.18         0.17
  780PIPE                     1.20      1.22      1.32      0.97         0.93
  781PIPE                     0.97      0.97      1.22      0.01         0.01
  782PIPE                     0.99      1.25      0.99      0.38         0.12
  789PIPE                     0.52      0.52      0.99      0.37         0.37
  803PIPE                     0.57      0.70      0.57      0.78         0.57
  804PIPE                     0.78      0.95      0.78      0.61         0.36
  805PIPE1                    0.45      0.45      8.45      0.01         0.01
  805PIPE2                    0.45      0.45      8.34      0.15         0.01
  810PIPE1                    0.52      0.57      0.52      0.75         0.52
  810PIPE2                    0.57      0.82      0.57      1.00         0.56
  811PIPE                     0.65      1.05      0.65      1.16         0.65
  812PIPE                     1.13      1.20      1.13      0.82         0.67
  813PIPE                     1.27      1.38      1.27      1.50         1.24
  814PIPE                     1.52      1.65      1.52      1.66         1.50
  815PIPE1                    1.55      1.55      1.65      0.01         0.01
  815PIPE2                    1.55      1.55      1.65      0.01         0.01
  816PIPE                     1.30      1.30      1.55      1.13         1.13
  817PIPE                     1.02      1.02      1.28      0.87         0.86
  825PIPE                     8.08      8.08      8.70      0.01         0.01
  826PIPE                     8.63      8.73      8.63      0.08         0.02
  827PIPE                     0.01      0.01      1.79      0.01         0.01
  830PIPE                     0.01      0.70      0.01      0.47         0.01
  831PIPE                     1.50      1.56      8.74      0.22         0.19
  838PIP                      1.95      2.82      1.95      2.31         1.42
  838PIPE                     2.81      2.81      2.82      1.96         1.94
  839PIPE                     2.69      2.69      2.81      0.01         0.01
  848PIPE                     0.88      3.36      0.88      3.99         0.88
  849_1                       0.01      0.01      0.01      0.84         0.01
  849_2                       0.01      0.01      0.01      0.84         0.01
  853PIPE                     8.87      8.87      8.87      0.10         0.10
  861_1                       0.56      0.67      0.56      1.06         0.56
  861_2                       0.56      0.67      0.56      1.06         0.56
  883CULV                     1.69      1.91      5.73      1.47         1.21
  889PIPE                     0.67      0.67      8.73      0.01         0.01
  892PIPE                     1.19      6.51      1.43      7.68         0.74
  893PIPE                     0.36      0.36      1.34      0.01         0.01
  BRADLEYIN                   0.01      0.01      4.49      0.01         0.01
  BRAD_OUT                    1.88      8.81      1.99      2.01         1.47
  DEANPIPE1                   0.16      0.16      0.22      0.01         0.01
  DEANPIPE2                   0.16      0.16      0.22      0.01         0.01
  DEERWPIPE                   0.01      0.55      0.01      1.70         0.01
  GBPIPE                      0.01      0.01      0.01      0.34         0.01
  PATH_PIPE                   8.71      8.71      8.71      0.56         0.56
  

  Analysis begun on:  Tue Jun 23 20:55:34 2026
  Analysis ended on:  Tue Jun 23 20:55:38 2026
  Total elapsed time: 00:00:04