
  EPA STORM WATER MANAGEMENT MODEL - VERSION 5.2 (Build 5.2.4)
  ------------------------------------------------------------

  WARNING 04: minimum elevation drop used for Conduit 6600
  WARNING 04: minimum elevation drop used for Conduit 7276
  WARNING 04: minimum elevation drop used for Conduit 990779
  WARNING 02: maximum depth increased for Node 6444
  WARNING 02: maximum depth increased for Node 8252
  WARNING 02: maximum depth increased for Node 9103
  
  ****************
  Analysis Options
  ****************
  Flow Units ............... CFS
  Process Models:
    Rainfall/Runoff ........ YES
    RDII ................... YES
    Snowmelt ............... NO
    Groundwater ............ NO
    Flow Routing ........... YES
    Ponding Allowed ........ NO
    Water Quality .......... NO
  Flow Routing Method ...... DYNWAVE
  Surcharge Method ......... EXTRAN
  Starting Date ............ 06/02/2007 21:00:00
  Ending Date .............. 06/05/2007 00:00:00
  Antecedent Dry Days ...... 5.0
  Report Time Step ......... 00:05:00
  Routing Time Step ........ 60.00 sec
  Variable Time Step ....... YES
  Maximum Trials ........... 8
  Number of Threads ........ 1
  Head Tolerance ........... 0.005000 ft
  
  
  **********************           Volume        Volume
  Rainfall Dependent I/I        acre-feet      10^6 gal
  **********************        ---------     ---------
  Sewershed Rainfall ......       105.464        34.367
  RDII Produced ...........         2.645         0.862
  RDII Ratio ..............         0.025
  
  
  **************************        Volume        Volume
  Flow Routing Continuity        acre-feet      10^6 gal
  **************************     ---------     ---------
  Dry Weather Inflow .......     10436.093      3400.757
  Wet Weather Inflow .......         0.000         0.000
  Groundwater Inflow .......         0.000         0.000
  RDII Inflow ..............         2.645         0.862
  External Inflow ..........         1.170         0.381
  External Outflow .........       172.410        56.182
  Flooding Loss ............     10073.660      3282.653
  Evaporation Loss .........         0.000         0.000
  Exfiltration Loss ........         0.000         0.000
  Initial Stored Volume ....         0.156         0.051
  Final Stored Volume ......        14.311         4.664
  Continuity Error (%) .....         1.721
  
  
  *************************
  Highest Continuity Errors
  *************************
  Node 8337 (99.96%)
  Node 10523 (98.44%)
  Node 10527 (97.90%)
  Node 8125 (95.33%)
  Node 8203 (93.02%)
  
  
  ***************************
  Time-Step Critical Elements
  ***************************
  Link 7604 (38.77%)
  Link 990782 (12.65%)
  Link 2033 (9.84%)
  Node 13077 (9.15%)
  Node 13006 (3.77%)
  
  
  ********************************
  Highest Flow Instability Indexes
  ********************************
  Link 703 (125)
  Link 704 (122)
  Link 11292 (116)
  Link 2849 (114)
  Link 700 (107)
  
  
  *********************************
  Most Frequent Nonconverging Nodes
  *********************************
  Node WWTPOUT (99.65%)
  Node 990641 (51.71%)
  Node 990640 (50.51%)
  Node 8337 (49.76%)
  Node 10528 (49.59%)
  
  
  *************************
  Routing Time Step Summary
  *************************
  Minimum Time Step           :     0.00 sec
  Average Time Step           :     2.22 sec
  Maximum Time Step           :     4.00 sec
  % of Time in Steady State   :     0.00
  Average Iterations per Step :     8.00
  % of Steps Not Converging   :    99.65
  Time Step Frequencies       :
     60.000 -  6.645 sec      :     0.00 %
      6.645 -  0.736 sec      :    96.36 %
      0.736 -  0.082 sec      :     3.63 %
      0.082 -  0.009 sec      :     0.01 %
      0.009 -  0.001 sec      :     0.01 %
  
  
  ******************
  Node Depth Summary
  ******************
  
  ---------------------------------------------------------------------------------
                                 Average  Maximum  Maximum  Time of Max    Reported
                                   Depth    Depth      HGL   Occurrence   Max Depth
  Node                 Type         Feet     Feet     Feet  days hr:min        Feet
  ---------------------------------------------------------------------------------
  1                    JUNCTION     4.45     4.56  3487.97     0  10:16        4.53
  1002                 JUNCTION     0.13     0.45  3842.13     0  08:03        0.37
  1003                 JUNCTION     4.53    22.15  3852.00     0  08:00       12.19
  10226                JUNCTION     4.33  4501.00  8210.00     0  00:33     3981.61
  10491                JUNCTION   103.75  3033.60  6709.60     0  03:01      113.00
  10522                JUNCTION    82.50  4501.00  8202.00     0  04:31     4023.87
  10523                JUNCTION    76.11  3735.46  7435.46     0  05:12     3134.37
  10527                JUNCTION    52.87  3567.21  7280.21     0  13:18      750.68
  10528                JUNCTION    57.83  4381.68  8098.68     0  08:42      744.45
  1079                 JUNCTION     0.05     0.56  3957.46     0  02:32        0.56
  1080                 JUNCTION     0.29     3.42  3971.47     0  02:50        3.38
  1081                 JUNCTION     0.77     9.01  3981.91     0  01:30        8.98
  1082                 JUNCTION     0.85    10.00  3997.91     0  00:00       10.00
  1083                 JUNCTION     0.72     8.55  3989.95     0  02:49        8.54
  1085                 JUNCTION     0.03     0.31  3954.50     0  02:38        0.31
  114                  JUNCTION     8.68     9.50  3656.95     0  07:55        9.49
  115                  JUNCTION    13.95    15.01  3664.10     0  09:36       14.99
  1156                 JUNCTION     1.02     4.37  3510.98     0  09:01        2.24
  1157                 JUNCTION     0.21     0.23  3526.23     0  06:50        0.23
  1158                 JUNCTION     0.23     0.25  3544.55     0  07:31        0.25
  1159                 JUNCTION     0.31     0.33  3550.21     0  07:31        0.33
  116                  JUNCTION     6.80     7.44  3649.87     0  10:47        7.42
  1160                 JUNCTION     1.25     1.71  3552.69     0  03:09        1.41
  1161                 JUNCTION     2.50     3.00  3554.77     0  03:08        2.78
  1162                 JUNCTION     4.39     4.87  3557.81     0  22:47        4.86
  1164                 JUNCTION     6.06    12.54  3579.80     0  03:02        6.66
  1165                 JUNCTION     9.14    10.00  3578.36     0  03:00       10.00
  117                  JUNCTION     5.42     5.94  3643.00     0  10:32        5.92
  1173                 JUNCTION     9.74    14.83  3583.78     0  03:01       10.68
  11738                JUNCTION   193.78  4501.00  8231.00     0  03:01     4012.60
  1174                 JUNCTION     8.66    10.00  3582.00     0  03:01        9.50
  1177                 JUNCTION     4.54     8.13  3508.08     0  09:01        7.23
  1178                 JUNCTION     6.71    10.00  3505.84     0  09:00       10.00
  1179                 JUNCTION     4.82     5.06  3492.00     0  00:03        5.06
  118                  JUNCTION     4.59     5.04  3636.20     0  12:45        5.02
  1180                 JUNCTION     4.63     4.87  3492.00     0  00:00        4.87
  1181                 JUNCTION     4.23     7.67  3495.21     0  01:56        5.03
  1182                 JUNCTION     3.96     8.18  3496.00     0  02:49        5.13
  1183                 JUNCTION     0.02     0.26  3510.67     0  01:07        0.26
  1184                 JUNCTION     0.03     0.30  3514.50     0  02:17        0.30
  11886                JUNCTION   116.33   667.97  4165.97     0  03:04      128.05
  119                  JUNCTION     4.01     4.41  3625.86     0  17:56        4.40
  11911                JUNCTION     3.20  4501.00  8159.00     0  05:09       64.53
  11913                JUNCTION   229.21  3045.93  6726.93     0  16:35     2581.37
  11941                JUNCTION    63.01  4501.00  8246.00     0  04:24     1553.57
  120                  JUNCTION     4.72     5.17  3612.25     0  20:44        5.16
  121                  JUNCTION     5.19     5.70  3598.03     0  09:05        5.67
  12190                JUNCTION   125.73  4501.00  7942.00     0  03:21     2824.07
  122                  JUNCTION     5.82     6.38  3587.76     0  16:09        6.36
  12215                JUNCTION     2.20  4501.00  7906.00     0  00:33       42.90
  12254                JUNCTION   126.27  4321.05  7753.05     0  12:12     2900.60
  1226                 JUNCTION     0.31     3.67  3520.54     0  02:49        3.63
  1227                 JUNCTION     0.22     2.54  3518.32     0  02:29        2.49
  1228                 JUNCTION     0.18     2.05  3517.37     0  00:04        2.03
  12284                JUNCTION     4.57  4501.00  8165.00     0  06:32       95.65
  12288                JUNCTION   272.54  3391.63  7072.63     1  02:08     2351.67
  1229                 JUNCTION     0.47     5.54  3538.00     0  00:00        5.54
  1231                 JUNCTION     0.40     4.64  3522.44     0  01:30        4.62
  1232                 JUNCTION     0.46     5.37  3524.00     0  00:00        5.37
  1251                 JUNCTION     5.52     8.16  3544.00     0  03:03        6.03
  1254                 JUNCTION     6.29     6.81  3544.00     0  00:03        6.81
  1255                 JUNCTION   174.55   821.26  4359.88     0  03:04      497.70
  1257                 JUNCTION     9.15    10.00  3813.68     0  03:00       10.00
  1265                 JUNCTION     1.12     1.82  3802.64     0  03:01        1.26
  1266                 JUNCTION     0.30     0.33  3800.85     0  04:47        0.33
  1267                 JUNCTION     0.36     0.39  3772.07     0  03:04        0.39
  1268                 JUNCTION     5.36    10.00  3769.69     0  03:03        5.90
  1269                 JUNCTION     4.52     4.95  3760.00     0  03:03        4.95
  1270                 JUNCTION     9.04    10.00  3812.94     0  03:00        9.92
  1271                 JUNCTION     2.98     6.78  3808.49     0  03:00        3.29
  1272                 JUNCTION     1.17     2.68  3803.94     0  03:01        1.30
  1290                 JUNCTION     1.57     6.17  3719.78     0  09:02        4.42
  1291                 JUNCTION     8.89    10.00  3682.19     0  03:00        9.75
  1292                 JUNCTION     9.15    10.00  3682.82     0  03:00       10.00
  1293                 JUNCTION     7.85    14.81  3716.00     0  09:00       14.81
  1294                 JUNCTION     0.27     0.30  3750.04     0  09:00        0.30
  1295                 JUNCTION     0.52     0.57  3754.12     0  03:20        0.57
  1297                 JUNCTION     8.41    10.00  3681.32     0  03:01        9.25
  1299                 JUNCTION     1.91     3.93  3758.00     0  03:03        2.12
  130                  JUNCTION    15.46    19.39  3773.88     0  07:36       19.39
  13090                JUNCTION    14.22    14.56  3366.19     0  04:01       14.26
  13091                JUNCTION    33.41    34.11  3369.74     0  04:01       33.55
  13092                JUNCTION    26.50    27.46  3372.59     0  04:01       26.72
  13093                JUNCTION    26.51    27.50  3373.13     0  04:01       26.75
  13094                JUNCTION    23.73    24.73  3375.36     0  04:01       24.00
  13095                JUNCTION    21.21    22.19  3375.82     0  04:01       21.50
  13096                JUNCTION    16.37    17.21  3377.84     0  04:01       16.71
  13097                JUNCTION    12.71    13.50  3378.63     0  04:01       13.08
  131                  JUNCTION     3.62     5.67  3806.00     0  08:00        4.79
  1310                 JUNCTION     1.19     1.30  3868.00     0  03:00        1.30
  132                  JUNCTION    27.13    34.06  3798.00     0  07:01       34.06
  1343                 JUNCTION     8.09     9.77  3679.29     0  03:09        8.90
  1347                 JUNCTION     4.54     6.05  3671.35     0  03:09        5.02
  1348                 JUNCTION     5.77     6.57  3673.27     0  03:14        6.37
  1349                 JUNCTION     6.77     7.71  3675.58     0  03:09        7.47
  1350                 JUNCTION     7.38     8.91  3677.55     0  03:09        8.12
  1372                 JUNCTION     4.08     5.63  3533.78     0  03:07        4.53
  1373                 JUNCTION     3.70     4.00  3530.00     0  03:07        4.00
  1374                 JUNCTION     3.68     4.00  3528.00     0  03:07        4.00
  1375                 JUNCTION     6.70     7.63  3527.25     0  03:01        7.25
  1376                 JUNCTION     6.66     7.18  3526.00     0  03:01        7.18
  1377                 JUNCTION     7.64     8.35  3526.00     0  03:00        8.35
  1378                 JUNCTION     4.53     6.01  3522.01     0  03:07        4.98
  1379                 JUNCTION     2.43     3.84  3518.64     0  03:07        2.71
  1408                 JUNCTION     6.43     7.07  3488.00     0  03:01        7.07
  1409                 JUNCTION     3.56     3.56  3478.00     0  00:00        3.56
  1410                 JUNCTION     2.92     3.62  3479.81     0  03:06        3.07
  1411                 JUNCTION     2.20     3.43  3481.24     0  03:06        2.41
  1412                 JUNCTION     4.22     6.22  3534.97     0  03:07        4.71
  1413                 JUNCTION     4.19     6.00  3534.55     0  03:07        4.68
  1414                 JUNCTION     4.31     6.45  3535.82     0  03:07        4.78
  1415                 JUNCTION     4.32     6.46  3535.94     0  03:07        4.79
  1416                 JUNCTION     4.35     6.39  3536.07     0  03:07        4.84
  1417                 JUNCTION     5.56     6.94  3538.21     0  03:04        6.08
  1418                 JUNCTION     6.51     7.04  3540.00     0  02:50        7.04
  144                  JUNCTION    19.45    20.93  3671.47     0  03:00       20.76
  1450                 JUNCTION     1.10     2.13  3507.18     0  10:00        1.47
  1451                 JUNCTION     3.17     4.26  3502.00     0  09:01        4.26
  1459                 JUNCTION     1.87     4.22  3505.72     0  09:05        2.47
  1460                 JUNCTION     2.16     4.16  3504.55     0  09:05        2.94
  1464                 JUNCTION    13.49    18.31  3555.29     0  08:00       16.02
  1465                 JUNCTION    12.71    17.67  3555.26     0  08:00       15.10
  1466                 JUNCTION    12.36    17.09  3554.99     0  08:00       14.71
  1473                 JUNCTION     0.47     0.53  3532.73     1  01:15        0.53
  1474                 JUNCTION     0.62     0.71  3526.36     1  01:15        0.71
  1475                 JUNCTION     7.53     9.72  3542.91     0  08:00        8.87
  1476                 JUNCTION    11.85    15.22  3549.25     0  08:00       14.00
  1477                 JUNCTION    13.29    16.83  3551.14     0  08:00       15.71
  1478                 JUNCTION    14.49    17.91  3552.55     1  02:00       17.17
  1479                 JUNCTION    16.04    18.98  3554.00     0  08:00       18.98
  1480                 JUNCTION    14.43    18.70  3554.95     0  08:00       17.13
  1489                 JUNCTION     2.65     3.22  3522.00     0  03:23        3.22
  1490                 JUNCTION     3.44     6.83  3521.73     0  10:00        4.84
  1492                 JUNCTION     2.39     6.10  3516.00     0  08:03        3.36
  150                  JUNCTION    24.58    26.10  3678.00     0  03:00       26.10
  1501                 JUNCTION    11.54    15.41  3553.96     0  08:00       13.77
  1502                 JUNCTION    10.94    13.93  3552.98     0  08:00       13.05
  1504                 JUNCTION    11.54    14.79  3556.00     0  09:00       14.79
  1505                 JUNCTION    10.39    12.38  3552.00     0  03:17       12.38
  151                  JUNCTION    17.30    20.67  3684.11     0  03:01       19.25
  152                  JUNCTION    12.12    14.09  3688.00     0  03:00       14.09
  1521                 JUNCTION     1.70     1.86  3528.00     0  03:00        1.86
  153                  JUNCTION     8.31    12.33  3696.89     0  03:01       10.36
  1531                 JUNCTION     9.08    10.14  3548.00     0  03:00       10.14
  154                  JUNCTION     5.13     6.41  3702.18     1  01:54        6.40
  1540                 JUNCTION     4.06     6.05  3480.00     0  03:01        5.97
  1541                 JUNCTION     8.36     8.77  3482.00     0  03:02        8.77
  1542                 JUNCTION     8.88     9.54  3482.00     0  08:00        9.54
  1543                 JUNCTION     8.87     9.89  3482.10     0  09:00        9.80
  1544                 JUNCTION     8.27     8.64  3482.00     0  03:02        8.64
  1547                 JUNCTION     7.70     8.83  3478.00     0  03:01        8.83
  155                  JUNCTION     0.47     0.51  3710.03     0  07:19        0.51
  1554                 JUNCTION     2.34     4.33  3472.19     0  03:01        2.74
  1555                 JUNCTION     1.64     3.79  3470.32     0  03:01        1.87
  1556                 JUNCTION     2.05     6.04  3497.85     0  09:04        2.70
  1557                 JUNCTION     2.11     3.58  3487.01     0  09:04        2.43
  1558                 JUNCTION     0.79     0.88  3483.08     0  18:27        0.88
  1559                 JUNCTION     1.65     2.29  3485.15     0  09:04        1.81
  156                  JUNCTION     0.41     0.44  3730.58     0  07:24        0.44
  1560                 JUNCTION     8.61    10.16  3482.00     0  09:00       10.16
  1561                 JUNCTION     8.86     9.41  3482.00     0  08:00        9.41
  1562                 JUNCTION     3.35     5.24  3488.42     0  09:00        4.55
  1563                 JUNCTION     3.18     5.10  3486.90     0  09:00        4.46
  1564                 JUNCTION     4.32     6.30  3485.40     0  09:00        5.81
  1565                 JUNCTION     8.47    10.21  3482.00     0  09:00       10.20
  1566                 JUNCTION     3.38     5.11  3489.91     0  09:00        4.44
  1567                 JUNCTION     4.77     5.89  3494.89     0  09:00        5.52
  1569                 JUNCTION     4.24     4.25  3474.00     0  00:00        4.25
  157                  JUNCTION     3.34     4.75  3741.32     0  07:04        4.12
  1570                 JUNCTION     3.26     3.26  3474.00     0  00:00        3.26
  1571                 JUNCTION     7.63    13.48  3485.10     0  09:00       10.28
  1572                 JUNCTION     7.50    10.17  3479.43     0  09:00        8.92
  1573                 JUNCTION     7.81     9.08  3478.00     0  09:00        9.08
  1574                 JUNCTION     7.69     8.95  3478.00     0  09:00        8.95
  1578                 JUNCTION     7.62    14.49  3486.00     0  09:00       10.38
  158                  JUNCTION     2.47     4.44  3742.00     0  07:04        3.14
  1582                 JUNCTION     7.45    10.68  3480.00     0  09:00        8.92
  159                  JUNCTION     0.00     0.00  3741.18     0  07:04        0.00
  1591                 JUNCTION     8.26     9.53  3478.00     0  08:00        9.53
  1592                 JUNCTION     8.16     9.27  3476.00     0  08:00        9.27
  1593                 JUNCTION     8.08     9.28  3475.78     0  08:00        9.20
  1594                 JUNCTION     7.62     8.73  3474.33     0  08:00        8.67
  1595                 JUNCTION     6.81     7.76  3472.00     0  08:00        7.76
  1596                 JUNCTION     6.11     7.06  3469.54     0  08:00        6.94
  1597                 JUNCTION     2.42     3.08  3496.01     0  09:00        2.87
  1598                 JUNCTION     3.92     4.28  3498.00     0  03:00        4.28
  160                  JUNCTION     0.00     0.00  3745.03     0  00:00        0.00
  161                  JUNCTION     0.00     0.00  3748.31     0  00:00        0.00
  1614                 JUNCTION     5.76     8.52  3488.50     0  09:00        7.61
  1615                 JUNCTION     5.52     9.62  3489.00     0  09:00        7.68
  1627                 JUNCTION     1.25     1.38  3478.17     0  09:31        1.38
  1628                 JUNCTION     3.78     5.50  3480.36     0  03:03        4.21
  1629                 JUNCTION     3.25     5.88  3480.77     0  03:01        3.68
  1631                 JUNCTION     6.35     7.93  3480.00     0  03:01        7.07
  1632                 JUNCTION     4.61     6.82  3480.00     0  03:01        5.03
  1633                 JUNCTION     7.74     8.72  3480.00     0  03:01        8.72
  1635                 JUNCTION     4.35     6.61  3480.00     0  03:01        4.77
  1636                 JUNCTION     3.73     4.08  3478.00     0  03:00        4.08
  1637                 JUNCTION     3.46     3.78  3478.00     0  03:00        3.78
  1641                 JUNCTION     4.14     4.46  3478.00     0  03:00        4.46
  1642                 JUNCTION     8.73    10.36  3479.18     0  09:00       10.30
  1643                 JUNCTION     6.40     7.68  3478.00     0  03:01        7.42
  1644                 JUNCTION     7.85     8.85  3480.00     0  03:01        8.85
  1653                 JUNCTION     4.77     7.13  3485.16     0  09:00        6.17
  1654                 JUNCTION     5.93     7.52  3488.00     0  08:00        7.52
  1658                 JUNCTION     3.82     4.11  3478.00     0  03:00        4.11
  1659                 JUNCTION     3.56     3.83  3478.00     0  03:00        3.83
  1663                 JUNCTION    10.45    14.57  3512.00     0  03:12       13.88
  1669                 JUNCTION    10.11    13.68  3510.27     1  02:00       12.51
  1670                 JUNCTION     0.46     0.50  3502.69     0  06:25        0.50
  1671                 JUNCTION     1.09     1.60  3505.92     0  03:15        1.23
  1672                 JUNCTION     5.39     7.21  3512.00     0  03:12        5.72
  1673                 JUNCTION     3.53     4.91  3513.69     0  03:15        3.92
  1674                 JUNCTION     5.49     8.67  3518.00     0  03:12        5.99
  1675                 JUNCTION     4.82     5.82  3517.25     0  03:15        5.34
  1676                 JUNCTION     4.30     5.46  3515.84     0  03:15        4.74
  1677                 JUNCTION     0.45     0.49  3503.93     0  06:25        0.49
  1678                 JUNCTION    10.55    14.33  3512.00     0  03:12       14.29
  1679                 JUNCTION     4.96     5.59  3520.77     0  03:19        5.46
  1680                 JUNCTION     5.70     6.26  3520.00     0  03:11        6.26
  1681                 JUNCTION     1.10     1.76  3525.62     0  03:14        1.24
  1687                 JUNCTION     3.65     3.99  3498.00     0  03:00        3.99
  1689                 JUNCTION     2.20     2.40  3488.00     0  03:01        2.40
  169                  JUNCTION     8.31    10.33  3758.00     0  07:01       10.33
  1691                 JUNCTION     3.79     5.55  3488.00     0  03:01        4.18
  1705                 JUNCTION     4.68     5.49  3491.14     0  10:09        5.49
  1706                 JUNCTION     5.83     6.60  3491.00     0  03:18        6.60
  1707                 JUNCTION     5.86     7.16  3490.54     0  08:00        6.87
  1708                 JUNCTION     0.40     0.43  3501.95     1  02:24        0.43
  1709                 JUNCTION     0.28     0.31  3500.13     1  01:00        0.31
  1710                 JUNCTION     1.57     2.09  3492.22     0  23:49        2.09
  1711                 JUNCTION     9.54    11.86  3507.76     0  03:12       10.80
  1712                 JUNCTION     5.30     7.34  3508.00     0  03:14        5.81
  1713                 JUNCTION    10.79    11.72  3506.00     0  03:12       11.72
  1715                 JUNCTION     3.85     8.08  3488.65     0  03:04        4.25
  1722                 JUNCTION     3.87     8.50  3488.24     0  03:04        4.28
  1723                 JUNCTION     4.21     5.85  3484.00     0  03:04        4.65
  1724                 JUNCTION     4.59     5.90  3482.00     0  03:04        5.07
  1727                 JUNCTION     4.08     4.47  3480.00     0  03:03        4.47
  1733                 JUNCTION     3.90     5.21  3480.25     0  03:03        4.33
  1746                 JUNCTION     5.89     7.77  3489.04     0  08:00        7.36
  1751                 JUNCTION     6.99     7.05  3485.22     0  03:00        7.04
  1752                 JUNCTION     6.01     6.07  3493.94     0  19:36        6.04
  1753                 JUNCTION     6.37     6.38  3484.00     0  03:00        6.38
  1756                 JUNCTION     6.08     7.32  3484.10     0  03:00        6.29
  1758                 JUNCTION     5.90     6.27  3482.00     0  03:00        6.27
  1759                 JUNCTION     6.40     6.97  3482.00     0  03:00        6.97
  1760                 JUNCTION     6.26     7.19  3482.00     0  03:00        6.83
  1762                 JUNCTION     6.28     6.33  3492.12     0  17:56        6.31
  1764                 JUNCTION     4.83     4.90  3488.00     1  01:26        4.87
  1765                 JUNCTION     4.26     4.32  3488.97     1  01:19        4.31
  1767                 JUNCTION     4.91     4.91  3490.00     0  00:00        4.91
  1785                 JUNCTION     5.85     6.25  3443.00     0  03:16        6.25
  1786                 JUNCTION     4.14     5.10  3437.00     0  03:16        4.39
  1787                 JUNCTION     2.96     3.04  3431.62     0  03:20        3.03
  1788                 JUNCTION     2.39     2.77  3466.00     0  03:24        2.77
  1789                 JUNCTION     5.18     5.99  3465.61     0  08:00        5.82
  1790                 JUNCTION     3.27     4.81  3470.00     0  03:02        3.65
  1791                 JUNCTION     4.58     5.23  3462.05     0  08:00        5.09
  1792                 JUNCTION     4.37     4.92  3459.65     0  08:00        4.79
  1793                 JUNCTION     3.96     4.30  3456.79     0  03:23        4.24
  1794                 JUNCTION     3.35     3.64  3455.29     0  03:23        3.50
  1795                 JUNCTION     1.53     1.56  3452.43     0  09:11        1.56
  1800                 JUNCTION     3.85     4.21  3470.00     0  03:01        4.21
  1803                 JUNCTION     4.80     6.57  3474.00     0  03:01        5.29
  1804                 JUNCTION     4.58     7.19  3478.00     0  03:00        5.05
  1805                 JUNCTION     6.08     6.64  3478.00     0  03:00        6.64
  1807                 JUNCTION     5.78     6.32  3478.00     0  03:00        6.32
  1812                 JUNCTION     5.20     9.83  3486.00     0  03:01        5.75
  1813                 JUNCTION     0.82     1.24  3483.84     0  03:02        0.94
  1814                 JUNCTION     2.17     2.71  3486.00     0  03:00        2.43
  1816                 JUNCTION     4.19     4.58  3478.00     0  03:01        4.58
  1817                 JUNCTION     1.30     1.46  3486.00     0  03:00        1.46
  1827                 JUNCTION     3.88     4.24  3530.00     0  03:01        4.24
  1828                 JUNCTION     3.25     7.64  3531.88     0  03:03        3.58
  1829                 JUNCTION     2.77     3.03  3526.00     0  03:04        3.03
  1831                 JUNCTION     3.52     5.87  3528.00     0  03:04        3.89
  1845                 JUNCTION     1.98     1.98  3510.00     0  00:00        1.98
  1853                 JUNCTION     6.04     6.60  3532.00     0  03:00        6.60
  1854                 JUNCTION     7.39     9.40  3534.00     0  03:01        8.16
  1856                 JUNCTION    11.43    12.63  3534.00     0  03:02       12.63
  1858                 JUNCTION     5.46     6.05  3526.00     0  03:03        6.04
  1859                 JUNCTION     4.83     7.34  3528.00     0  03:04        5.34
  1860                 JUNCTION     0.40     0.44  3517.27     0  07:00        0.44
  1877                 JUNCTION     3.41     3.73  3540.00     0  03:02        3.73
  1878                 JUNCTION     4.51     6.90  3542.00     0  03:03        5.23
  1879                 JUNCTION     3.91     5.65  3540.00     0  03:03        4.48
  1880                 JUNCTION     2.64     2.88  3536.00     0  03:04        2.88
  1881                 JUNCTION     3.02     3.32  3536.00     0  03:05        3.32
  1882                 JUNCTION     6.05     8.62  3545.15     0  03:03        6.72
  1883                 JUNCTION     6.17     8.43  3545.18     0  03:03        6.84
  1892                 JUNCTION     8.10     8.85  3546.00     0  03:00        8.85
  1893                 JUNCTION     7.43     9.73  3548.00     0  03:01        8.16
  1895                 JUNCTION     6.23    11.65  3552.00     0  03:02        6.86
  1896                 JUNCTION     5.24     9.93  3552.00     0  03:02        5.77
  1897                 JUNCTION     4.90     5.36  3548.00     0  03:02        5.36
  19                   JUNCTION     4.26     5.30  3601.30     0  07:08        5.28
  1923                 JUNCTION     5.83     6.37  3544.00     0  03:00        6.37
  1924                 JUNCTION     6.30     7.77  3546.00     0  03:01        6.93
  1928                 JUNCTION     6.57     8.55  3548.00     0  03:02        7.22
  1931                 JUNCTION     7.08     7.75  3548.00     0  03:02        7.75
  1936                 JUNCTION     7.50     8.20  3552.00     0  03:00        8.20
  1937                 JUNCTION     6.23     9.87  3552.00     0  03:02        6.86
  1938                 JUNCTION     7.01     8.91  3552.00     0  03:02        7.70
  1940                 JUNCTION     5.96     6.52  3552.00     0  03:02        6.52
  1941                 JUNCTION     4.79     7.24  3554.00     0  03:04        5.29
  1945                 JUNCTION     4.04     5.34  3555.60     0  03:04        4.44
  1950                 JUNCTION     2.67     2.92  3552.00     0  03:04        2.92
  1951                 JUNCTION     3.72     4.07  3552.00     0  03:04        4.07
  1952                 JUNCTION     4.39     6.75  3553.94     0  03:04        4.85
  1975                 JUNCTION     8.74     9.55  3572.00     0  03:00        9.55
  1976                 JUNCTION     6.34     6.93  3572.00     0  03:01        6.93
  1977                 JUNCTION     8.02     9.78  3572.00     0  03:01        8.79
  1978                 JUNCTION     3.17     3.47  3572.00     0  03:01        3.47
  1986                 JUNCTION     1.38     4.47  3558.88     0  03:01        1.54
  1989                 JUNCTION     0.24     0.28  3554.19     0  03:05        0.27
  1990                 JUNCTION     4.44     4.85  3564.00     0  03:01        4.85
  1993                 JUNCTION     6.63     8.45  3569.52     0  03:01        7.30
  1994                 JUNCTION     5.78     6.86  3567.39     0  03:01        6.36
  1995                 JUNCTION     5.32     5.82  3566.00     0  03:01        5.82
  2                    JUNCTION     4.11     4.44  3480.00     0  07:08        4.44
  2002                 JUNCTION     8.00     9.13  3584.00     0  03:00        9.13
  2003                 JUNCTION     2.32     2.55  3522.00     0  03:10        2.55
  2008                 JUNCTION     5.29     5.86  3525.86     0  08:00        5.82
  2009                 JUNCTION     4.28     5.19  3525.97     0  03:08        4.73
  2022                 JUNCTION     9.39    18.52  3518.25     0  09:00       12.69
  2023                 JUNCTION     2.60     2.85  3520.00     0  03:11        2.85
  2032                 JUNCTION    10.03    16.44  3515.03     0  09:00       13.59
  2043                 JUNCTION     1.63     5.76  3506.35     0  03:04        2.12
  2050                 JUNCTION     0.52     0.57  3500.28     0  05:32        0.57
  2074                 JUNCTION     5.60     6.12  3510.00     0  03:00        6.12
  2075                 JUNCTION     4.81    12.86  3516.00     0  03:01        5.33
  2077                 JUNCTION     3.32     5.93  3507.85     0  03:02        3.82
  2078                 JUNCTION     2.30     5.71  3506.92     0  03:04        2.79
  2089                 JUNCTION     4.57     4.57  3498.00     0  00:00        4.57
  2090                 JUNCTION     7.73     7.83  3502.00     0  03:00        7.83
  2091                 JUNCTION     6.41     6.73  3508.00     0  03:00        6.73
  2092                 JUNCTION     2.86     2.93  3509.85     0  08:38        2.92
  2093                 JUNCTION     4.34     4.40  3495.72     0  18:52        4.38
  2096                 JUNCTION     8.04    21.96  3523.61     0  09:00       11.01
  2097                 JUNCTION     6.23     6.83  3510.00     0  03:15        6.83
  2098                 JUNCTION     5.04     5.51  3510.00     0  03:13        5.51
  2099                 JUNCTION     8.43    20.50  3521.61     0  09:00       11.50
  21                   JUNCTION     2.17     2.75  3598.28     0  10:22        2.73
  2100                 JUNCTION     4.27     4.68  3510.00     0  03:11        4.68
  2106                 JUNCTION     4.63     5.60  3511.97     0  03:10        5.12
  2107                 JUNCTION     4.48     4.92  3512.00     0  03:10        4.92
  2108                 JUNCTION     0.32     0.36  3533.34     0  08:01        0.36
  2115                 JUNCTION     1.08     2.93  3554.00     0  09:03        2.49
  2120                 JUNCTION     0.32     0.36  3540.08     0  08:00        0.36
  2121                 JUNCTION     2.14     2.50  3544.13     0  08:00        2.48
  2122                 JUNCTION     1.83     3.91  3558.00     0  08:04        3.81
  2125                 JUNCTION     3.12     3.66  3548.00     0  08:00        3.66
  2126                 JUNCTION     3.49     4.22  3549.08     0  08:00        4.13
  2127                 JUNCTION     7.35     8.51  3554.00     0  08:00        8.51
  2128                 JUNCTION     4.33     5.09  3555.80     0  08:00        5.04
  2129                 JUNCTION     4.76     6.59  3557.99     0  03:08        5.40
  2131                 JUNCTION     5.03     7.90  3512.62     0  03:13        5.53
  2132                 JUNCTION     4.83     8.21  3514.66     0  03:13        5.39
  2133                 JUNCTION     5.22     6.41  3514.00     0  03:13        5.93
  2135                 JUNCTION     5.63     7.13  3513.93     0  03:13        6.32
  2141                 JUNCTION     4.03     4.41  3510.00     0  03:13        4.41
  2142                 JUNCTION     4.85     5.57  3512.03     0  03:08        5.35
  2143                 JUNCTION     5.51     6.39  3512.89     0  03:08        6.07
  2144                 JUNCTION     4.96     5.78  3512.33     0  03:08        5.46
  2147                 JUNCTION     3.94     4.31  3510.00     0  03:01        4.31
  2155                 JUNCTION     4.17     5.32  3510.83     0  03:13        4.61
  2160                 JUNCTION     2.60     4.51  3531.71     0  03:05        2.89
  2161                 JUNCTION     0.27     0.29  3526.59     0  04:49        0.29
  2162                 JUNCTION     2.23     3.64  3516.44     0  03:08        2.47
  2163                 JUNCTION     2.17     4.08  3515.30     0  03:08        2.42
  2166                 JUNCTION     5.73     6.62  3513.62     0  03:08        6.31
  2171                 JUNCTION     6.11     6.88  3514.95     0  03:08        6.72
  2172                 JUNCTION     3.85     4.21  3516.00     0  03:02        4.21
  2187                 JUNCTION     1.22     1.84  3522.53     0  03:11        1.37
  2188                 JUNCTION     4.19     4.59  3520.00     0  03:06        4.59
  2189                 JUNCTION     0.43     0.47  3523.55     0  04:34        0.47
  2190                 JUNCTION     1.17     1.48  3526.15     0  03:09        1.31
  2196                 JUNCTION     3.42     3.77  3536.00     0  03:05        3.77
  2197                 JUNCTION     3.26     3.59  3536.00     0  03:05        3.59
  2198                 JUNCTION     3.81     4.20  3536.00     0  03:05        4.20
  22                   JUNCTION     5.15     6.50  3594.41     0  14:14        6.48
  2202                 JUNCTION     6.28     9.11  3539.79     0  03:03        7.25
  2204                 JUNCTION     7.05     8.61  3538.94     0  08:00        8.20
  2205                 JUNCTION     8.57    10.00  3539.68     0  08:00       10.00
  2206                 JUNCTION     2.75     3.01  3532.00     0  03:03        3.01
  2207                 JUNCTION     1.77     3.16  3531.45     0  03:03        1.98
  2212                 JUNCTION     6.05     7.01  3536.45     0  16:11        7.00
  2215                 JUNCTION     2.25     2.62  3531.30     0  03:03        2.49
  2219                 JUNCTION     0.93     1.12  3529.37     0  03:05        1.06
  2222                 JUNCTION     0.78     1.04  3528.63     0  03:05        0.89
  2223                 JUNCTION     0.48     0.52  3527.41     0  05:52        0.52
  2225                 JUNCTION     3.65     4.00  3564.00     0  03:06        4.00
  2226                 JUNCTION     4.74     5.20  3568.00     0  03:07        5.20
  2227                 JUNCTION     5.01     5.81  3575.41     0  03:07        5.55
  2228                 JUNCTION     4.69     5.45  3579.25     0  03:07        5.19
  2249                 JUNCTION     0.97     4.31  3553.57     0  09:02        3.19
  2250                 JUNCTION     2.16     8.83  3556.00     0  09:00        5.01
  2251                 JUNCTION     1.81     4.80  3551.18     0  09:00        3.50
  2252                 JUNCTION     1.80     2.63  3545.83     0  03:04        2.60
  2253                 JUNCTION     1.43     3.36  3549.32     0  09:03        2.66
  2254                 JUNCTION     0.65     0.84  3543.63     0  09:04        0.84
  2255                 JUNCTION     4.12     4.71  3533.00     0  03:10        4.71
  2256                 JUNCTION     2.69     4.03  3527.81     0  03:18        3.12
  2257                 JUNCTION     2.35     3.23  3547.23     0  03:04        3.16
  2258                 JUNCTION     3.16     4.11  3549.66     0  03:04        3.94
  2259                 JUNCTION     3.16     4.09  3550.00     0  03:04        3.94
  2261                 JUNCTION     2.29     3.68  3516.85     0  03:18        2.73
  2262                 JUNCTION     2.98     4.10  3515.35     0  03:16        3.51
  2267                 JUNCTION     3.98     5.15  3537.81     0  03:03        4.39
  2269                 JUNCTION     4.48     4.90  3540.00     0  03:01        4.90
  2270                 JUNCTION     4.32     4.73  3538.00     0  03:03        4.73
  2271                 JUNCTION     3.57     5.46  3537.43     0  03:03        3.94
  2275                 JUNCTION     3.58     7.03  3543.83     0  03:03        3.96
  2277                 JUNCTION     3.23     5.34  3536.70     0  03:03        3.57
  2278                 JUNCTION     3.03     4.70  3534.70     0  03:06        3.36
  2279                 JUNCTION     3.72     5.66  3533.66     0  03:06        4.12
  2281                 JUNCTION     2.53     7.13  3546.00     0  03:05        2.82
  2282                 JUNCTION     5.73     6.27  3550.00     0  03:01        6.27
  2283                 JUNCTION     2.52     3.69  3543.55     0  03:06        2.80
  2284                 JUNCTION     2.42     3.66  3544.22     0  03:06        2.69
  2285                 JUNCTION     2.31     3.55  3545.05     0  03:06        2.56
  2287                 JUNCTION     3.24     5.26  3547.38     0  03:03        3.58
  2288                 JUNCTION     5.00     6.69  3549.80     0  03:02        5.51
  2289                 JUNCTION     8.29     9.06  3560.00     0  03:00        9.06
  2290                 JUNCTION     7.57     9.42  3560.00     0  03:00        8.30
  2292                 JUNCTION     4.66     5.10  3554.00     0  03:01        5.10
  2293                 JUNCTION     2.87     3.14  3550.00     0  03:01        3.14
  2294                 JUNCTION     3.50     3.83  3550.00     0  03:01        3.83
  2295                 JUNCTION     7.75     8.47  3554.00     0  03:00        8.47
  2296                 JUNCTION     6.82     9.47  3554.00     0  03:00        7.48
  23                   JUNCTION     7.91     9.94  3590.25     0  21:33        9.92
  2304                 JUNCTION     8.92    10.48  3558.00     0  08:00       10.48
  2305                 JUNCTION     7.96    10.13  3558.00     0  03:01        9.31
  2310                 JUNCTION     3.75     4.10  3664.00     0  03:00        4.10
  2311                 JUNCTION     2.66     7.45  3662.95     0  03:01        2.93
  2312                 JUNCTION     0.38     0.41  3650.31     0  03:47        0.41
  2313                 JUNCTION     0.34     0.38  3635.38     0  03:19        0.38
  2314                 JUNCTION     0.36     0.39  3616.89     0  03:48        0.39
  2315                 JUNCTION     0.44     0.48  3605.78     0  03:48        0.48
  2317                 JUNCTION     0.36     0.39  3598.69     0  03:45        0.39
  2318                 JUNCTION     0.44     0.48  3595.58     0  03:46        0.48
  2320                 JUNCTION     0.38     0.41  3588.81     0  03:08        0.41
  2321                 JUNCTION     3.74     4.10  3584.00     0  03:07        4.10
  2345                 JUNCTION     3.30     6.26  3558.47     0  03:04        3.79
  2353                 JUNCTION     8.63     9.40  3568.00     0  03:01        9.40
  2356                 JUNCTION     5.34     8.34  3573.14     0  03:02        5.85
  2357                 JUNCTION     4.95     8.89  3561.75     0  03:01        5.45
  2358                 JUNCTION     6.14     6.67  3560.00     0  03:01        6.67
  2359                 JUNCTION     2.71     6.97  3564.00     0  03:04        2.99
  2368                 JUNCTION     5.11     6.50  3572.00     0  03:02        5.60
  2369                 JUNCTION    14.52    15.87  3570.00     0  03:00       15.87
  2370                 JUNCTION     7.39     9.13  3572.00     0  03:11        9.13
  2371                 JUNCTION     6.37    10.99  3574.09     0  03:11        7.75
  2376                 JUNCTION     6.99     9.38  3572.00     0  03:10        8.59
  2381                 JUNCTION     6.34     9.03  3556.13     0  08:02        7.96
  2382                 JUNCTION     4.55     5.49  3560.99     0  03:03        5.01
  2383                 JUNCTION     5.08     5.98  3562.66     0  03:00        5.60
  2384                 JUNCTION     5.88     6.42  3564.00     0  03:00        6.42
  2395                 JUNCTION    23.82    26.03  3584.00     0  03:00       26.03
  24                   JUNCTION     7.52     9.37  3606.16     0  07:08        9.34
  2413                 JUNCTION     4.80     7.89  3551.00     0  03:04        6.60
  2414                 JUNCTION     2.68     7.42  3542.00     0  08:02        3.34
  2415                 JUNCTION     6.33     6.99  3531.00     0  08:00        6.99
  2417                 JUNCTION     3.30     3.61  3554.00     0  03:03        3.61
  2418                 JUNCTION     4.01     4.39  3552.00     0  03:03        4.39
  2419                 JUNCTION    13.99    15.31  3552.00     0  03:02       15.31
  2420                 JUNCTION    10.89    12.12  3545.49     0  03:04       11.95
  2422                 JUNCTION     6.31     7.17  3539.14     0  03:04        6.93
  2423                 JUNCTION     2.11     2.31  3528.00     0  03:05        2.31
  2429                 JUNCTION     3.60     5.78  3557.50     0  03:03        3.98
  2430                 JUNCTION     4.66     5.61  3558.68     0  03:04        5.13
  2431                 JUNCTION     5.07     6.15  3560.14     0  03:03        5.59
  2435                 JUNCTION     4.30     6.47  3535.53     0  03:04        4.75
  2447                 JUNCTION     3.72     7.70  3546.17     0  08:02        4.89
  2448                 JUNCTION     6.24     6.80  3568.00     0  03:11        6.80
  2449                 JUNCTION     7.24     9.13  3569.86     0  03:11        8.08
  2450                 JUNCTION     9.44    13.82  3573.48     0  03:11       10.83
  2451                 JUNCTION     5.70    10.57  3572.49     0  03:07        6.28
  2456                 JUNCTION     9.38    14.57  3574.33     0  03:11       10.76
  2457                 JUNCTION     6.23     6.69  3573.18     0  09:00        6.63
  2458                 JUNCTION     6.97     7.15  3578.00     0  03:02        7.15
  2460                 JUNCTION     8.73    11.18  3588.00     0  08:00       11.18
  2466                 JUNCTION     8.76    11.09  3588.00     0  08:00       11.09
  2469                 JUNCTION     4.86     5.37  3580.00     0  03:02        5.37
  2484                 JUNCTION     6.55     9.03  3571.37     0  03:11        7.95
  2485                 JUNCTION     6.11     8.13  3570.18     0  03:11        7.29
  2486                 JUNCTION     5.67     9.70  3571.46     0  03:09        6.64
  2492                 JUNCTION     8.56     9.33  3567.22     0  09:00        9.20
  2493                 JUNCTION     7.17     7.48  3562.00     0  03:10        7.48
  2494                 JUNCTION     6.69     8.50  3558.00     0  08:00        8.50
  2495                 JUNCTION     8.18     9.12  3567.43     0  09:00        8.85
  25                   JUNCTION    10.93    13.60  3610.98     0  19:45       13.58
  2508                 JUNCTION     8.21     8.86  3565.92     0  09:00        8.78
  2511                 JUNCTION     3.12     4.00  3558.00     0  08:03        4.00
  2522                 JUNCTION     2.53     3.96  3558.00     0  08:04        3.96
  2544                 JUNCTION     8.12     9.47  3590.76     0  03:03        8.95
  2547                 JUNCTION     2.15     4.23  3592.00     0  08:01        3.98
  2548                 JUNCTION     2.11     4.33  3592.08     0  08:01        3.21
  2549                 JUNCTION     2.09     5.79  3593.53     0  08:01        2.88
  2550                 JUNCTION     1.90     4.30  3592.00     0  08:00        2.39
  2551                 JUNCTION     4.06     6.67  3592.00     0  03:03        4.70
  2552                 JUNCTION     8.12     9.36  3590.50     0  03:03        8.95
  2573                 JUNCTION     8.21    11.05  3592.00     0  08:00        9.64
  2574                 JUNCTION     8.21    11.10  3591.59     0  08:00        9.54
  2575                 JUNCTION     8.08    10.97  3591.42     0  08:00        9.32
  2576                 JUNCTION     7.89    10.47  3590.76     0  08:00        9.05
  2577                 JUNCTION     7.63     9.73  3589.97     0  08:00        8.71
  2578                 JUNCTION     7.26     8.13  3588.00     0  03:03        8.13
  2579                 JUNCTION     7.78     9.11  3588.00     0  03:03        9.11
  2580                 JUNCTION     8.84    10.24  3588.00     0  08:00       10.24
  2585                 JUNCTION     2.57     3.77  3625.77     0  03:08        2.84
  2586                 JUNCTION     0.29     0.46  3580.87     0  09:06        0.46
  2587                 JUNCTION     0.83     1.34  3578.24     0  10:00        1.34
  2588                 JUNCTION     4.45     5.61  3618.11     0  03:08        4.92
  2589                 JUNCTION     3.56     3.90  3602.00     0  03:03        3.90
  2590                 JUNCTION     1.03     1.35  3595.25     0  03:13        1.17
  26                   JUNCTION     6.78     8.56  3614.78     0  15:24        8.54
  2600                 JUNCTION     1.10     1.53  3577.88     0  10:00        1.53
  2601                 JUNCTION     3.83     5.43  3592.73     0  03:04        4.24
  2604                 JUNCTION     0.45     0.50  3585.50     0  03:13        0.49
  2607                 JUNCTION     0.24     0.37  3577.17     0  10:00        0.37
  2609                 JUNCTION     2.74     3.00  3574.00     0  03:01        3.00
  2610                 JUNCTION     2.62     3.19  3558.00     0  03:02        3.19
  2611                 JUNCTION     2.33     8.10  3564.00     0  09:00        5.30
  2613                 JUNCTION     2.01     2.20  3558.00     0  03:02        2.20
  2614                 JUNCTION     2.75     4.13  3560.87     0  03:01        3.03
  2615                 JUNCTION     2.43     2.66  3562.00     0  03:01        2.66
  2616                 JUNCTION     1.23     1.54  3566.00     0  03:02        1.38
  2617                 JUNCTION     5.29     5.80  3558.00     0  03:07        5.80
  2622                 JUNCTION     4.85     6.38  3604.55     0  03:03        5.20
  2623                 JUNCTION     4.73     5.10  3596.00     0  03:02        5.10
  2624                 JUNCTION     1.00     1.03  3597.70     0  14:06        1.03
  2625                 JUNCTION     7.56    13.00  3600.00     0  03:00        8.24
  2626                 JUNCTION    10.08    11.61  3596.00     0  03:00       10.75
  2631                 JUNCTION     0.31     3.60  3594.00     0  00:00        3.60
  2632                 JUNCTION     0.65     4.00  3593.60     0  01:31        3.98
  2633                 JUNCTION     2.10     5.21  3593.15     0  02:05        5.18
  2634                 JUNCTION     2.21     5.09  3592.89     0  02:06        5.04
  2638                 JUNCTION     7.88     8.35  3592.00     0  03:00        8.35
  2639                 JUNCTION     8.07     8.58  3592.00     0  03:00        8.58
  2640                 JUNCTION     7.74    11.22  3594.00     0  03:00        8.41
  2646                 JUNCTION     8.02     9.17  3591.05     0  03:03        8.77
  2647                 JUNCTION     8.06     9.37  3591.03     0  03:03        8.84
  2648                 JUNCTION     8.08     9.43  3590.92     0  03:03        8.88
  268                  JUNCTION     0.07     0.20  3836.20     1  02:37        0.20
  27                   JUNCTION     0.25     0.28  3624.12     0  07:17        0.28
  2720                 JUNCTION     0.04     0.05  3704.99     0  11:16        0.05
  2721                 JUNCTION     0.09     0.13  3684.03     0  03:04        0.12
  2722                 JUNCTION     7.68     8.40  3684.00     0  03:00        8.40
  2729                 JUNCTION     0.33     0.36  3663.26     0  04:18        0.36
  2730                 JUNCTION     0.36     0.39  3637.99     0  04:18        0.39
  2754                 JUNCTION     0.30     0.33  3863.38     0  06:32        0.33
  2755                 JUNCTION     0.83     1.10  3865.70     0  03:09        0.91
  2756                 JUNCTION     0.89     0.98  3853.32     1  02:42        0.98
  2757                 JUNCTION     0.85     0.96  3852.61     1  02:43        0.94
  2758                 JUNCTION     0.71     0.78  3851.30     1  02:45        0.77
  2776                 JUNCTION     0.30     0.32  3859.82     0  18:48        0.32
  2783                 JUNCTION     2.02     5.75  3567.22     0  09:03        5.49
  2784                 JUNCTION     2.35     7.05  3566.85     0  09:03        6.63
  2785                 JUNCTION     3.66     5.42  3574.91     0  09:03        5.04
  2797                 JUNCTION     0.35     0.38  3581.60     1  02:58        0.38
  2798                 JUNCTION     3.09     3.67  3577.00     0  09:03        3.67
  2799                 JUNCTION     2.89     3.17  3577.00     0  03:15        3.17
  2800                 JUNCTION     0.34     0.37  3578.72     0  03:15        0.37
  2801                 JUNCTION     2.94     3.93  3667.46     0  03:13        3.26
  2802                 JUNCTION     2.23     3.71  3666.36     0  03:13        2.49
  2803                 JUNCTION     0.22     0.26  3637.60     0  11:05        0.26
  2804                 JUNCTION     0.22     0.24  3653.49     0  04:40        0.24
  2805                 JUNCTION     0.27     0.29  3661.04     1  02:58        0.29
  2806                 JUNCTION    11.06    12.41  3538.00     0  03:00       12.10
  2807                 JUNCTION    11.69    12.78  3538.00     0  03:00       12.78
  2808                 JUNCTION     7.89     8.62  3536.00     0  03:01        8.62
  2809                 JUNCTION     4.58     5.00  3536.00     0  03:01        5.00
  2813                 JUNCTION     2.51     2.74  3536.00     0  03:01        2.74
  2814                 JUNCTION     2.42     5.46  3548.00     0  09:01        4.84
  2815                 JUNCTION     4.57    10.30  3566.00     0  10:00       10.30
  2825                 JUNCTION     0.70     0.77  3850.33     1  02:43        0.77
  2826                 JUNCTION     0.26     0.29  3848.76     1  02:44        0.29
  2827                 JUNCTION     0.20     0.22  3835.04     1  02:45        0.22
  2828                 JUNCTION     0.21     0.23  3824.97     1  02:45        0.23
  2829                 JUNCTION     0.21     0.23  3811.75     1  02:46        0.23
  2851                 JUNCTION    13.63    14.91  3676.29     0  03:01       14.91
  2852                 JUNCTION     3.50     5.04  3719.82     0  03:01        3.86
  2853                 JUNCTION     0.49     0.54  3698.07     0  06:00        0.54
  2854                 JUNCTION     3.46     6.10  3731.30     0  03:01        3.82
  2855                 JUNCTION     5.32     5.82  3728.81     0  03:00        5.82
  2866                 JUNCTION     0.21     0.23  3779.93     1  02:46        0.23
  2867                 JUNCTION     0.21     0.23  3763.43     1  02:46        0.23
  2868                 JUNCTION     0.22     0.24  3626.60     0  06:35        0.24
  2869                 JUNCTION     0.26     0.29  3641.79     0  06:35        0.29
  2870                 JUNCTION     1.78     2.96  3645.36     0  03:04        1.98
  2871                 JUNCTION     2.25     3.44  3646.42     0  03:04        2.48
  2872                 JUNCTION     3.02     4.08  3647.84     0  03:04        3.33
  2873                 JUNCTION     4.82     5.61  3650.72     0  03:01        5.31
  2874                 JUNCTION     5.46     5.97  3651.77     0  03:00        5.97
  2875                 JUNCTION    12.83    14.02  3660.46     0  03:00       14.02
  2881                 JUNCTION     5.63    12.44  3579.33     0  03:12        6.22
  2882                 JUNCTION     5.26     9.78  3575.80     0  03:12        5.81
  2883                 JUNCTION     5.25     8.93  3574.00     0  03:12        5.81
  2884                 JUNCTION     5.16    10.00  3574.07     0  03:12        5.71
  2885                 JUNCTION     5.09    10.17  3573.74     0  03:11        5.63
  2886                 JUNCTION     5.28     9.89  3572.75     0  03:12        5.85
  2976                 JUNCTION     4.79     5.23  3586.00     0  03:01        5.23
  2978                 JUNCTION     3.56     4.39  3582.01     0  03:15        3.95
  2979                 JUNCTION     1.45     2.45  3578.17     0  03:15        1.64
  3                    JUNCTION     4.03     4.50  3480.00     0  07:08        4.50
  3003                 JUNCTION     8.49    10.00  3648.83     0  03:00       10.00
  3013                 JUNCTION     9.64    10.53  3698.00     0  03:00       10.53
  3015                 JUNCTION     6.07    10.00  3685.59     0  03:01        6.68
  3018                 JUNCTION     5.52     7.33  3658.85     0  03:15        6.11
  3022                 JUNCTION     4.49     4.92  3622.00     0  03:03        4.92
  3024                 JUNCTION     4.88     5.33  3598.00     0  03:00        5.33
  3025                 JUNCTION     4.78     5.98  3598.00     0  03:01        5.90
  3029                 JUNCTION     6.31     9.41  3595.81     0  03:01        7.35
  3030                 JUNCTION     6.31     7.90  3594.00     0  03:01        7.32
  3062                 JUNCTION     5.25     6.00  3590.00     0  03:01        5.80
  3073                 JUNCTION    12.98    14.18  3608.00     0  03:00       14.18
  31                   JUNCTION     9.50    12.23  3576.58     0  08:00       12.21
  32                   JUNCTION     7.51    10.00  3569.48     0  08:00       10.00
  33                   JUNCTION     5.45     6.80  3584.00     0  07:06        6.80
  330                  JUNCTION     3.69     4.16  3718.00     0  03:02        4.16
  331                  JUNCTION    11.25    13.03  3728.00     0  04:00       13.03
  337                  JUNCTION     0.93     1.73  3715.33     0  04:00        1.07
  338                  JUNCTION     0.35     0.38  3714.16     0  07:03        0.38
  3394                 JUNCTION    11.87    12.99  3828.00     0  03:01       12.99
  3395                 JUNCTION     8.75    10.84  3802.00     0  03:04        9.62
  3396                 JUNCTION     0.37     0.41  3772.38     1  02:16        0.41
  3400                 JUNCTION     3.08     4.11  3665.30     0  03:10        3.60
  3404                 JUNCTION    15.29    17.87  3766.00     0  07:00       17.87
  3406                 JUNCTION    11.22    13.25  3766.00     0  07:00       13.25
  3407                 JUNCTION    11.59    13.74  3752.19     0  07:01       13.59
  3408                 JUNCTION     4.09     4.68  3714.00     0  00:00        4.68
  3409                 JUNCTION     3.42     3.65  3684.00     0  00:00        3.65
  3411                 JUNCTION     4.22     5.45  3663.77     0  03:08        4.75
  3412                 JUNCTION     5.24     5.73  3662.00     0  00:00        5.73
  3413                 JUNCTION     6.36     9.01  3663.47     0  10:00        7.58
  3414                 JUNCTION     6.90    10.31  3664.00     0  09:00        8.35
  342                  JUNCTION     0.31     0.90  3708.70     1  02:11        0.43
  343                  JUNCTION     0.27     0.31  3709.67     1  02:12        0.29
  3444                 JUNCTION     9.67    10.00  3663.42     0  00:00       10.00
  3445                 JUNCTION     9.40    10.00  3671.10     0  03:03        9.86
  3473                 JUNCTION     3.93    10.00  3686.97     0  03:01        4.33
  3474                 JUNCTION     4.60     5.03  3676.00     0  03:00        5.03
  3475                 JUNCTION     0.38     0.42  3719.16     0  03:40        0.42
  3481                 JUNCTION     0.35     0.39  3662.60     0  04:04        0.39
  3483                 JUNCTION     0.34     0.43  3644.91     0  03:00        0.37
  3485                 JUNCTION     3.26     3.57  3628.00     0  03:03        3.57
  3486                 JUNCTION     8.94    16.55  3625.95     0  03:03       10.51
  3487                 JUNCTION     7.98    23.81  3624.00     0  03:02       10.25
  3494                 JUNCTION     5.59     6.76  3610.66     0  03:03        6.54
  3495                 JUNCTION     7.65     9.99  3608.00     0  03:03        9.89
  3496                 JUNCTION     6.06    10.83  3606.00     0  03:03        9.36
  3527                 JUNCTION     7.04     7.10  3662.00     0  03:00        7.10
  3528                 JUNCTION     5.75     5.80  3662.00     0  03:00        5.80
  3529                 JUNCTION     8.35     9.10  3668.00     0  08:00        9.10
  3530                 JUNCTION     5.85     6.51  3672.00     0  03:07        6.51
  3531                 JUNCTION     5.77     7.07  3658.00     0  09:00        6.61
  3532                 JUNCTION     5.27     5.89  3656.00     0  09:00        5.89
  3533                 JUNCTION     2.66     3.43  3648.03     0  09:00        3.08
  3534                 JUNCTION     5.77     6.23  3640.00     0  03:00        6.23
  3535                 JUNCTION     3.48     4.08  3627.54     0  03:00        3.56
  3536                 JUNCTION     3.40     3.40  3628.00     0  00:00        3.40
  3552                 JUNCTION     8.05     8.12  3633.86     0  03:42        8.11
  3553                 JUNCTION     5.35     5.39  3634.00     0  03:00        5.39
  3554                 JUNCTION     0.36     0.36  3638.63     0  02:45        0.36
  3555                 JUNCTION     6.18     6.18  3656.00     0  00:00        6.18
  3556                 JUNCTION     4.88     4.93  3653.86     0  02:04        4.91
  3557                 JUNCTION     2.37     2.43  3650.20     0  00:26        2.41
  3558                 JUNCTION     3.97     4.68  3652.00     0  09:00        4.52
  3559                 JUNCTION    11.51    11.82  3632.00     0  03:00       11.82
  3560                 JUNCTION     9.98    10.07  3622.00     0  00:00       10.07
  3561                 JUNCTION     8.51     8.86  3618.67     0  03:00        8.63
  3562                 JUNCTION     5.71     5.82  3612.00     0  03:00        5.82
  3564                 JUNCTION     3.57     4.58  3626.95     0  03:00        3.67
  3565                 JUNCTION     3.60     4.74  3626.64     0  03:00        3.73
  3566                 JUNCTION     3.62     6.03  3624.43     0  03:00        3.88
  3567                 JUNCTION     5.28     7.17  3620.67     0  03:00        5.67
  3568                 JUNCTION     9.43     9.90  3616.00     0  03:00        9.90
  3584                 JUNCTION     6.48     6.83  3610.00     0  03:00        6.83
  3585                 JUNCTION     8.19    10.70  3608.00     0  03:03       10.00
  3597                 JUNCTION     6.65     6.65  3596.00     0  00:00        6.65
  366                  JUNCTION     3.38     3.70  3756.00     0  03:03        3.70
  3660                 JUNCTION     7.13     7.18  3596.88     0  03:10        7.17
  3661                 JUNCTION     7.32     7.36  3597.41     0  03:36        7.36
  3662                 JUNCTION     7.86     7.86  3598.00     0  00:00        7.86
  3663                 JUNCTION     6.10     6.38  3598.28     0  03:00        6.18
  3665                 JUNCTION     4.71     5.12  3598.41     0  03:00        4.82
  3666                 JUNCTION     3.50     3.98  3598.48     0  03:00        3.63
  3668                 JUNCTION     2.80     3.32  3598.52     0  03:00        2.95
  367                  JUNCTION     3.59     4.59  3753.39     1  01:10        4.22
  3671                 JUNCTION    13.92    15.14  3606.00     0  03:00       15.14
  368                  JUNCTION     7.29     8.70  3774.00     0  07:00        8.70
  3680                 JUNCTION     7.45     9.14  3608.00     0  03:00        8.51
  369                  JUNCTION     4.64     5.60  3774.00     0  07:00        5.60
  370                  JUNCTION     0.05     0.16  3777.76     1  02:39        0.16
  371                  JUNCTION     0.04     0.13  3804.33     1  02:39        0.13
  3733                 JUNCTION     8.24    10.77  3610.41     0  03:12        9.11
  3740                 JUNCTION     0.61     0.67  3621.26     0  09:00        0.67
  3741                 JUNCTION     5.40     7.81  3616.37     0  00:41        7.56
  3746                 JUNCTION     8.85     9.92  3610.00     0  03:00        9.59
  3748                 JUNCTION     5.51     6.12  3611.29     0  08:00        6.00
  3749                 JUNCTION     4.09     4.44  3612.00     0  00:00        4.44
  3753                 JUNCTION     4.18     7.93  3616.00     0  00:00        7.93
  3776                 JUNCTION     8.05     8.80  3606.00     0  03:00        8.80
  3777                 JUNCTION    11.30    12.35  3632.00     0  03:00       12.35
  3783                 JUNCTION     5.96    10.18  3603.66     0  08:00        9.71
  3784                 JUNCTION     5.98    13.79  3605.46     0  03:01       10.26
  3785                 JUNCTION    10.24    14.96  3602.27     0  08:00       14.52
  3786                 JUNCTION    10.60    16.11  3602.60     0  03:00       15.45
  3787                 JUNCTION     4.63     5.06  3600.00     0  03:01        5.06
  379                  JUNCTION     1.08     3.23  3720.73     0  04:04        1.29
  3791                 JUNCTION     2.67     5.23  3596.58     0  03:02        2.95
  3795                 JUNCTION     6.18     6.59  3588.71     0  03:02        6.30
  3798                 JUNCTION     6.44     7.06  3589.98     0  03:00        6.56
  3799                 JUNCTION    10.87    16.23  3602.00     0  08:00       16.23
  3800                 JUNCTION    10.75    16.24  3602.32     0  08:00       15.90
  3808                 JUNCTION     5.16     5.36  3587.12     0  03:02        5.23
  3810                 JUNCTION     5.92     8.60  3593.10     0  03:01        6.63
  3811                 JUNCTION     3.80     4.40  3587.47     0  03:01        3.96
  3812                 JUNCTION     3.38     3.38  3586.00     0  00:00        3.38
  3814                 JUNCTION     4.17     4.17  3586.00     0  00:00        4.17
  3821                 JUNCTION    11.32    12.00  3616.00     0  03:00       12.00
  3822                 JUNCTION     3.78     3.78  3608.00     0  00:00        3.78
  3823                 JUNCTION     3.60     3.66  3608.06     0  02:29        3.63
  3828                 JUNCTION     9.66    10.17  3614.00     0  03:00       10.17
  3829                 JUNCTION     9.52    10.00  3613.66     0  03:00       10.00
  3830                 JUNCTION     9.35    10.40  3613.80     0  03:00        9.82
  3834                 JUNCTION     8.86    10.17  3612.83     0  03:03        9.23
  3835                 JUNCTION     9.01    10.45  3613.29     0  03:00        9.41
  3836                 JUNCTION     9.13    10.55  3613.58     0  03:00        9.55
  3837                 JUNCTION     8.60     9.48  3611.09     0  03:03        8.85
  3839                 JUNCTION     6.12     6.67  3609.66     0  03:03        6.27
  3840                 JUNCTION     4.02     4.02  3608.00     0  00:00        4.02
  3841                 JUNCTION     3.85     3.85  3608.00     0  00:00        3.85
  3842                 JUNCTION     8.58     9.43  3611.03     0  03:03        8.82
  3843                 JUNCTION     6.12     6.31  3608.00     0  03:03        6.31
  3845                 JUNCTION     6.99     7.10  3596.00     0  03:00        7.10
  3847                 JUNCTION     8.89     9.65  3598.00     0  03:00        9.65
  3848                 JUNCTION     9.46    12.32  3600.24     0  08:00       11.86
  3856                 JUNCTION     6.51     6.87  3590.00     0  03:00        6.64
  3859                 JUNCTION     4.51     4.60  3590.00     0  03:00        4.60
  386                  JUNCTION     4.04     5.68  3724.40     0  04:04        4.64
  3860                 JUNCTION     6.33     6.58  3590.00     0  03:00        6.46
  3873                 JUNCTION     3.88     6.33  3615.22     0  03:00        4.26
  3875                 JUNCTION     3.40     3.40  3608.00     0  00:00        3.40
  3877                 JUNCTION     5.19     6.81  3612.98     0  03:00        5.45
  3878                 JUNCTION     3.93     5.93  3613.79     0  03:00        4.22
  3879                 JUNCTION     3.80     5.92  3613.99     0  03:00        4.10
  3896                 JUNCTION     3.70     4.60  3608.97     0  03:01        4.51
  3897                 JUNCTION     3.66     5.49  3610.00     0  00:00        5.49
  3898                 JUNCTION     2.55     7.42  3613.27     0  03:01        6.85
  3899                 JUNCTION     2.11     7.60  3614.00     0  00:00        7.60
  3907                 JUNCTION     6.04     6.52  3618.00     0  03:00        6.52
  3908                 JUNCTION     6.67     7.17  3618.00     0  03:00        7.17
  3934                 JUNCTION     4.00     4.00  3618.00     0  00:00        4.00
  3935                 JUNCTION     3.99     4.11  3618.00     0  03:00        4.09
  3937                 JUNCTION     4.22     5.80  3619.35     0  10:00        4.38
  3938                 JUNCTION     4.49     6.84  3620.01     0  10:00        4.72
  3939                 JUNCTION     4.69     7.27  3620.15     0  10:00        4.98
  394                  JUNCTION     0.75     3.18  3746.78     1  01:10        2.65
  3945                 JUNCTION     4.91    11.85  3623.91     0  10:00        5.58
  3946                 JUNCTION     4.90     8.83  3621.41     0  10:00        5.24
  3948                 JUNCTION     6.64     9.76  3619.99     0  03:00        7.39
  395                  JUNCTION     0.51     2.47  3748.60     1  01:10        1.89
  3953                 JUNCTION     4.35     4.35  3616.00     0  00:00        4.35
  3954                 JUNCTION     7.94     9.00  3620.00     0  03:00        9.00
  3955                 JUNCTION     6.16     9.55  3619.24     0  03:00        6.72
  3957                 JUNCTION     5.90    11.54  3622.00     0  00:00       11.54
  396                  JUNCTION     0.41     3.65  3743.92     1  02:04        3.26
  397                  JUNCTION     1.21    12.10  3750.00     0  08:06        9.89
  398                  JUNCTION     3.13     4.60  3738.00     0  03:12        4.60
  399                  JUNCTION     8.61    11.90  3736.00     0  03:00        9.89
  3996                 JUNCTION     7.59    11.25  3624.00     0  03:01        8.26
  3997                 JUNCTION     7.66     9.82  3624.00     0  03:01        8.35
  3998                 JUNCTION     7.45     8.09  3624.00     0  03:02        8.09
  4                    JUNCTION     4.24     4.32  3480.00     0  03:11        4.32
  400                  JUNCTION     1.63     1.78  3724.00     0  03:00        1.78
  4000                 JUNCTION     5.72     8.46  3628.78     0  03:02        6.30
  4002                 JUNCTION     7.26     8.07  3632.00     0  03:05        8.07
  4009                 JUNCTION     9.43    11.03  3608.76     0  03:02       10.44
  401                  JUNCTION     2.20     3.32  3726.00     0  03:01        2.44
  4013                 JUNCTION    20.35    23.66  3618.00     0  03:00       23.66
  4014                 JUNCTION    14.06    19.43  3614.27     0  03:00       16.13
  4015                 JUNCTION     4.17     4.25  3600.00     0  03:00        4.25
  4016                 JUNCTION     3.72     3.72  3600.00     0  00:00        3.72
  4017                 JUNCTION     6.95     7.97  3605.18     0  03:02        7.54
  402                  JUNCTION     2.67     2.92  3726.00     0  03:02        2.92
  4022                 JUNCTION     3.69     6.45  3617.64     0  03:02        4.42
  4023                 JUNCTION     7.80     9.94  3623.44     0  03:02        8.65
  4024                 JUNCTION    14.66    15.81  3630.00     0  03:00       15.81
  403                  JUNCTION     9.81    12.70  3730.00     0  03:01       10.84
  404                  JUNCTION    12.21    13.57  3722.00     0  03:01       13.57
  4045                 JUNCTION     8.09     8.09  3626.00     0  00:00        8.09
  405                  JUNCTION     9.47    10.34  3732.00     0  03:00       10.34
  4097                 JUNCTION     7.03     7.63  3634.00     0  03:03        7.63
  4098                 JUNCTION     4.03     8.23  3639.35     0  10:00        4.71
  4099                 JUNCTION     4.88     7.05  3638.60     0  10:00        5.40
  4100                 JUNCTION     5.86     6.31  3638.00     0  03:05        6.31
  4107                 JUNCTION    10.04    13.88  3638.00     0  08:00       12.51
  4108                 JUNCTION     0.58     2.17  3638.95     0  11:02        1.59
  4109                 JUNCTION     0.52     0.58  3639.31     0  13:07        0.58
  4110                 JUNCTION     1.88     2.13  3642.18     0  16:15        2.12
  4111                 JUNCTION     4.71     5.90  3641.00     0  03:06        5.14
  4112                 JUNCTION     6.38     9.91  3648.39     0  03:07        6.96
  4116                 JUNCTION     7.86    12.16  3616.00     0  03:02        8.67
  4117                 JUNCTION     6.53    12.50  3616.00     0  03:03        7.30
  4118                 JUNCTION     5.95    10.64  3614.00     0  03:03        6.74
  4119                 JUNCTION     5.89     6.95  3608.00     0  03:03        6.50
  412                  JUNCTION     0.04    11.21  3787.92     0  00:01       20.91
  4120                 JUNCTION     6.98     8.66  3608.00     0  03:03        7.56
  4121                 JUNCTION     6.51     8.61  3607.38     0  03:03        7.02
  4122                 JUNCTION     5.99     7.47  3598.00     0  03:01        6.54
  4141                 JUNCTION     5.35    11.37  3604.90     0  03:02        5.83
  4142                 JUNCTION     5.10    10.69  3605.42     0  03:02        5.56
  4143                 JUNCTION     4.84     9.58  3605.54     0  03:02        5.29
  4145                 JUNCTION     4.58     7.63  3604.84     0  03:02        5.00
  4146                 JUNCTION     4.09     4.42  3604.00     0  03:00        4.42
  4203                 JUNCTION     7.95     8.72  3614.00     0  03:02        8.72
  4204                 JUNCTION     6.39     8.43  3616.43     0  03:03        7.02
  4205                 JUNCTION     4.90     7.42  3618.00     0  03:03        5.38
  4206                 JUNCTION     8.86     9.90  3614.00     0  03:02        9.69
  4224                 JUNCTION     4.11    15.85  3618.00     0  03:02        4.48
  4234                 JUNCTION     4.87     7.32  3612.00     0  03:02        5.31
  4241                 JUNCTION     5.41     9.61  3616.32     0  03:01        5.89
  4242                 JUNCTION     6.12     6.63  3616.00     0  03:00        6.63
  425                  JUNCTION     1.74     2.42  3730.91     0  07:04        2.14
  4252                 JUNCTION     7.54     8.18  3620.00     0  03:00        8.18
  4260                 JUNCTION     7.06     7.65  3622.00     0  03:00        7.65
  4261                 JUNCTION     9.68    15.16  3631.02     0  03:01       10.59
  4317                 JUNCTION     3.86     6.72  3654.89     0  03:10        4.28
  4318                 JUNCTION     5.24     7.48  3649.79     0  03:10        5.80
  4319                 JUNCTION     6.47     7.10  3642.00     0  03:06        7.10
  432                  JUNCTION     1.59     1.94  3723.94     1  01:28        1.94
  4320                 JUNCTION     4.39     5.10  3636.00     0  08:00        5.10
  4321                 JUNCTION     3.44     4.19  3634.69     0  08:00        3.83
  4322                 JUNCTION     7.99     9.25  3630.44     0  03:04        8.79
  4323                 JUNCTION     5.91     7.32  3641.51     1  02:00        6.25
  4324                 JUNCTION     4.51     5.65  3638.84     1  02:00        4.81
  4325                 JUNCTION     3.83     4.54  3636.37     1  02:00        4.09
  4326                 JUNCTION     2.78     2.96  3634.00     0  03:05        2.96
  433                  JUNCTION     4.97     6.25  3737.23     0  07:04        6.23
  434                  JUNCTION     4.10     5.15  3735.45     0  16:04        5.13
  435                  JUNCTION     2.82     3.69  3733.13     0  07:04        3.51
  4354                 JUNCTION     4.62     8.65  3660.85     0  03:02        5.07
  4355                 JUNCTION     0.46     0.49  3660.48     0  16:40        0.49
  436                  JUNCTION     1.15     1.81  3730.01     0  07:04        1.42
  437                  JUNCTION     0.35     0.41  3728.14     0  07:07        0.41
  4371                 JUNCTION     0.46     0.49  3650.60     0  13:07        0.49
  4374                 JUNCTION     1.61     2.42  3646.22     0  03:08        1.78
  4376                 JUNCTION     2.06     2.29  3642.69     0  12:45        2.29
  4377                 JUNCTION     1.53     2.12  3645.24     0  03:08        1.70
  4378                 JUNCTION     5.76     6.61  3668.00     0  03:01        6.34
  438                  JUNCTION     0.80     1.01  3722.43     0  07:05        0.97
  439                  JUNCTION     0.61     0.71  3721.87     0  07:23        0.71
  4390                 JUNCTION     4.19     7.14  3660.18     0  03:10        4.64
  4391                 JUNCTION     7.54     9.46  3644.78     0  03:00        7.93
  4392                 JUNCTION     9.08    11.58  3648.00     0  03:00        9.53
  4393                 JUNCTION     9.37    11.24  3648.00     0  03:00        9.83
  4394                 JUNCTION    10.15    10.60  3648.00     0  03:00       10.60
  4395                 JUNCTION     5.02     7.80  3666.75     0  03:01        5.56
  4396                 JUNCTION     5.35     8.50  3671.60     0  03:01        5.92
  4397                 JUNCTION     3.62     4.00  3672.00     0  03:00        4.00
  4405                 JUNCTION    13.84    16.34  3655.40     0  19:00       16.24
  4407                 JUNCTION     7.29     7.29  3648.00     0  00:00        7.29
  4408                 JUNCTION    15.79    19.05  3658.00     0  03:00       19.05
  4409                 JUNCTION     6.10     8.15  3656.00     0  03:04        6.34
  4411                 JUNCTION     6.11     8.89  3658.00     0  03:04        6.47
  4413                 JUNCTION     6.30     6.31  3652.00     0  00:00        6.31
  4416                 JUNCTION     7.03     7.36  3650.00     0  00:00        7.36
  4417                 JUNCTION     6.73     7.94  3652.00     0  00:00        7.94
  4437                 JUNCTION     0.42     0.46  3592.12     0  04:31        0.46
  4439                 JUNCTION     3.85     6.01  3604.00     0  03:00        4.25
  444                  JUNCTION     6.05     7.63  3739.32     0  07:04        7.59
  4440                 JUNCTION     5.50     6.01  3608.00     0  03:00        6.01
  4441                 JUNCTION     4.48     8.95  3618.00     0  03:00        4.92
  4444                 JUNCTION     5.01     5.47  3618.00     0  03:00        5.47
  4445                 JUNCTION     1.36     2.65  3596.97     0  03:01        1.53
  445                  JUNCTION     6.71     8.44  3740.63     0  07:04        8.42
  4453                 JUNCTION     4.63     5.03  3572.00     0  03:03        5.03
  446                  JUNCTION     8.44    10.61  3743.78     0  12:40       10.57
  4462                 JUNCTION     3.22     4.65  3576.00     0  03:10        3.72
  4463                 JUNCTION     2.11     4.28  3579.31     0  03:15        2.65
  4464                 JUNCTION     0.98     1.06  3584.78     0  06:25        1.03
  4465                 JUNCTION     0.98     1.07  3585.45     0  06:53        1.05
  4466                 JUNCTION     1.00     1.10  3586.22     0  15:36        1.08
  4467                 JUNCTION     1.10     1.21  3586.62     0  11:51        1.19
  4468                 JUNCTION     1.29     1.49  3587.77     0  03:01        1.38
  447                  JUNCTION     9.85    12.36  3746.61     0  07:50       12.34
  4470                 JUNCTION     1.69     1.80  3590.00     0  03:00        1.80
  4471                 JUNCTION     3.22     6.56  3598.00     0  03:00        3.50
  448                  JUNCTION    10.56    13.21  3748.00     0  07:01       13.21
  4480                 JUNCTION     3.41     3.68  3596.00     0  03:00        3.68
  4481                 JUNCTION     3.46     5.19  3598.00     0  03:00        3.77
  4482                 JUNCTION     3.19     3.97  3582.00     0  03:01        3.52
  4483                 JUNCTION     3.30     3.60  3582.00     0  03:01        3.60
  4484                 JUNCTION     7.93     9.23  3588.00     0  03:01        9.23
  4485                 JUNCTION     4.08     4.45  3584.00     0  03:02        4.45
  4486                 JUNCTION     1.83     4.62  3580.89     0  03:15        2.13
  4487                 JUNCTION     2.02     4.99  3581.81     0  03:15        2.30
  4488                 JUNCTION     2.34     5.06  3582.16     0  03:15        2.62
[...]
  7878                        0.01      0.01     23.99      0.01         0.01
  7879                       23.99     23.99     23.99     23.99         0.01
  788                        22.13     22.90     25.45      3.09         1.78
  7880                       23.90     23.98     23.90      0.39         0.32
  7884                       23.67     23.81     23.67     23.84        22.39
  7885                       23.68     23.68     23.69     11.73        11.37
  7886                       23.67     23.67     23.67     14.81        14.52
  7887                       23.70     23.70     23.70      9.66        11.13
  79                          0.01     17.10      0.01     17.00         0.01
  8                          18.87     18.87     27.00     17.91        17.90
  80                         17.09     17.09     17.98     17.04        17.03
  8003                       23.97     23.99     23.97     23.99        23.97
  8004                       23.96     23.97     23.98     23.98        23.96
  801                         3.23     27.00      3.23      3.22         0.01
  8018                       23.85     23.85     23.86     19.08        19.03
  8019                       23.83     23.87     23.83     23.88        23.83
  8023                       23.97     24.00     23.97     24.00        23.97
  8024                       23.95     23.99     23.95     23.99        23.95
  8025                       23.95     23.96     23.95      5.84         5.59
  8026                       23.79     23.93     23.79      5.82         5.65
  8027                       12.76     12.76     13.08      7.80         7.80
  8028                       10.50     10.50     12.00      7.84         7.80
  8029                        9.81      9.81     10.19      7.89         7.69
  8030                        3.18      3.18      9.57      0.01         0.01
  8031                        2.93      2.93      3.00      0.95         0.95
  8032                       13.92     13.92     23.83      0.01         0.01
  8033                       23.80     23.80     23.83      0.01         0.01
  8034                       23.92     23.95     23.92      5.85         5.34
  806                         3.00      3.00      3.00      3.00         3.00
  807                         3.02      3.02      3.03      3.00         3.00
  8073                        0.01      0.01     24.00      0.02         0.01
  808                         3.04      3.04      3.05      3.00         3.00
  813                         3.05      3.05      3.05      3.00         3.00
  814                         3.05      3.05      3.07      3.00         3.00
  817                         0.01      0.01     23.79      0.01         0.01
  8271                        0.01      0.01     25.84      0.34         0.01
  8281                        3.00      3.00      3.00      3.01         3.00
  8283                        3.00      3.01      3.00      3.01         3.00
  8550                       23.99     23.99     23.99     23.99        23.99
  8551                       24.00     24.00     24.00     24.00        24.00
  8552                       24.00     24.00     24.00     24.00        24.00
  8553                       24.00     24.00     24.00     24.00        24.00
  8557                        0.35      0.36     21.02      0.16         0.13
  8568                       26.99     27.00     26.99      0.15        10.17
  8581                        0.04     23.96      0.04     23.97         0.04
  8582                        0.01      0.01     23.96      0.01         0.01
  8583                        0.01     23.98      0.01     23.98         0.01
  8584                       23.98     23.99     23.98     23.99        23.98
  8585                       23.99     23.99     23.99     23.99        23.99
  8599                       24.00     24.00     24.00     24.00        24.00
  8600                       23.99     23.99     23.99     23.95        23.95
  8601                       23.98     23.98     23.98      0.01         0.01
  8603                        0.39     23.98      0.39     23.98         0.39
  8604                       26.98     26.99     26.98      0.04         3.77
  8605                       26.99     26.99     27.00      3.69         0.26
  8606                       23.99     27.00     23.99      0.02         0.48
  8607                       18.95     18.95     26.99     23.87         0.05
  881                        23.98     23.99     23.98     23.99        23.98
  882                        24.00     24.00     24.00     24.00        24.00
  884                        23.97     23.98     23.97     23.98        23.97
  885                        19.02     19.25     26.75      0.01         4.22
  8851                       23.81     23.81     23.81      6.69         8.64
  8852                       23.73     23.74     23.81      6.67         6.42
  886                         0.01     23.97      0.01     23.97         0.01
  8863                       23.74     23.87     23.74     15.96         6.86
  8864                       23.57     23.57     23.66      0.01         0.01
  8865                       23.56     23.63     23.56     23.65        23.50
  8870                       23.61     23.61     23.61      0.66         3.18
  8871                       23.61     23.68     23.61     23.69        23.59
  8872                       23.67     23.71     23.67     23.72        23.67
  8873                       23.13     23.13     23.57      0.01         0.01
  8897                        0.01      0.01     10.91      0.01         0.01
  8898                        0.01     23.87      0.01     23.88         0.01
  8899                       23.87     23.91     23.87     23.91        23.87
  8900                       10.86     10.86     19.87      0.01         0.01
  8901                       21.34     21.34     23.60      0.01         0.01
  8902                       23.70     23.74     23.70     23.75        23.70
  8903                       23.74     23.78     23.74     23.79        23.73
  8905                       23.79     23.89     23.79     21.82        21.66
  8906                        0.01      0.01     23.88      0.01         0.01
  8907                        0.01      0.01     23.90     23.90         0.01
  8927                       23.61     23.61     23.70      0.01         0.01
  8928                       23.71     23.71     23.76      0.01         0.01
  8929                       23.91     23.94     23.91     23.94        23.91
  8930                        0.01     23.91      0.01     23.93         0.01
  8932                        0.01      0.01     23.94      0.01         0.01
  8935                        0.01     23.97      0.01     23.97         0.01
  8936                       23.97     23.98     23.97     23.98        23.97
  8937                       23.98     23.98     23.98     23.98        23.98
  8938                       23.98     23.99     23.98     23.99        23.98
  8939                        0.01      0.01     23.90      0.01         0.01
  8940                       23.90     23.91     23.90     23.91        23.90
  8943                       23.99     23.99     23.99     23.99        23.99
  8944                       23.99     23.99     23.99      0.01         0.01
  8945                       23.98     23.98     23.99      0.01         0.01
  8958                       23.94     23.94     23.95      5.00         5.00
  8960                       23.95     23.95     23.97     20.93        20.94
  8962                       23.98     23.99     23.98     21.99        21.99
  8963                       23.95     23.99     23.95     23.99        23.95
  8964                       23.95     23.96     23.95      0.04         0.01
  8965                       23.95     23.95     23.95     21.95        21.95
  8966                       23.94     23.95     23.94     23.96        23.94
  8967                       23.94     23.94     23.94     23.94        23.94
  8969                       23.94     23.94     23.94      0.01         0.01
  8970                       23.93     23.93     23.94      0.01         0.01
  8976                       23.97     23.97     23.98     23.97        23.97
  8980                       19.00     19.00     23.93     18.00        18.00
  8981                       19.00     19.00     19.00     19.95        19.00
  8982                       16.99     16.99     19.00     10.00        10.00
  9292                       23.93     23.95     23.93     15.08         2.70
  9293                       23.98     23.98     23.98      0.01         0.01
  9294                       23.98     23.98     23.98      0.02         0.01
  9295                       23.96     23.98     23.96      2.12         2.33
  9296                       23.93     23.94     23.93     10.94         3.97
  9297                       23.93     23.93     23.93     10.95         4.36
  9308                       23.95     23.97     23.95      3.10         2.62
  9327                       23.90     23.93     23.90     23.93        23.90
  9328                       23.96     23.96     23.97      0.01         0.01
  9329                       23.96     23.96     23.96      0.01         0.01
  9330                       23.94     23.94     23.95      0.01         0.01
  9331                       23.99     23.99     23.99     23.99        23.99
  9335                       23.94     23.94     23.96      0.01         0.01
  9336                       23.93     23.93     23.94      0.01         0.01
  9337                       23.92     23.92     23.93      0.01         0.01
  9338                       23.92     23.99     23.92     23.99        23.92
  9339                       23.97     23.97     23.98      0.02         0.01
  9342                       23.96     23.96     23.96     23.95        23.95
  9343                       23.95     23.96     23.95     23.97        23.95
  9344                       23.96     23.97     23.96      3.03         3.01
  9345                       23.96     23.96     23.97      0.02         0.01
  9389                       23.96     23.96     23.98      0.01         0.01
  965                        23.99     24.00     23.99     24.00        23.99
  966                        24.00     24.00     24.00     24.00        24.00
  967                        23.97     23.99     23.97     23.99        23.97
  970                        23.97     23.97     23.97     23.98        23.97
  971                        23.96     23.97     23.96     23.97        23.96
  990600                     27.00     27.00     27.00      0.01         0.01
  990601                     27.00     27.00     27.00      0.01         0.01
  990602                     27.00     27.00     27.00      0.01         0.01
  990603                     27.00     27.00     27.00     22.98        16.27
  990604                     27.00     27.00     27.00      0.01         0.01
  990605                     27.00     27.00     27.00      0.01         0.01
  990609                     27.00     27.00     27.00      0.01         0.01
  990610                     27.00     27.00     27.00      0.01         0.01
  990611                     27.00     27.00     27.00      0.01         0.01
  990778                     23.93     23.93     27.00      0.01         0.01
  990779                     27.00     27.00     27.00     23.97        25.72
  990780                     23.61     23.61     27.00      0.01         0.01
  990781                     23.98     27.00     23.98     27.00        23.98
  990782                      0.01      3.01      0.01      3.02         0.01
  990783                     23.85     23.85     25.24      0.01         0.01
  990784                      0.01      0.01      0.01     23.75         0.01
  990785                     23.99     23.99     23.99     23.99        23.98
  990786                      0.01      0.01      0.01      0.01         0.01
  990788                     16.99     16.99     27.00     17.00         0.01
  990789                     24.03     24.15     25.84      0.01         0.04
  9935                       23.85     23.98     23.85     23.98        23.85
  9936                        0.01     23.85      0.01     23.85         0.01
  9992                       23.85     23.85     23.86      3.85         3.80
  CDT-11                     27.00     27.00     27.00      0.01         0.01
  CDT-13                     23.79     23.79     23.80     20.61        20.57
  CDT-133                    23.97     23.97     27.00      0.01         0.01
  CDT-135                    23.97     23.98     23.97     19.97        19.96
  CDT-137                    23.98     26.99     23.98     26.98        23.95
  CDT-27                     27.00     27.00     27.00     24.00        24.00
  CDT-467                    24.59     24.83     25.83      7.68         6.33
  CDT-469                    25.28     27.00     25.28      1.15         0.53
  CDT-479                    19.25     27.00     19.25     11.76         7.67
  CDT-69                     23.60     23.89     23.69      0.06        16.23
  CDT-71                     16.37     23.89     19.43     19.78        15.76
  
  
  ***************
  Pumping Summary
  ***************
  
  ---------------------------------------------------------------------------------------------------------
                                                  Min       Avg       Max     Total     Power    % Time Off
                        Percent   Number of      Flow      Flow      Flow    Volume     Usage    Pump Curve
  Pump                 Utilized   Start-Ups       CFS       CFS       CFS  10^6 gal     Kw-hr    Low   High
  ---------------------------------------------------------------------------------------------------------
  PUMP-100                 7.76        2811      0.00    457.77   1200.00    23.159  88343.40    0.0   98.0
  PUMP-102                 0.57         684      0.00    774.24   1200.00     3.133  43311.10    0.0   96.3
  PUMP-104                88.31           1      0.00      0.41      0.72     0.260     48.97    0.0    0.0
  PUMP-106                88.16           1      0.00      0.40      0.45     0.259     48.83    0.0    0.0
  PUMP-108               100.00           0      0.00      0.51      0.62     0.372    140.10    0.0    0.0
  PUMP-110               100.00           0      0.00      0.51      0.62     0.372    140.10    0.0    0.0
  PUMP-112                27.28        3359      0.00      3.93    700.00     0.772    429.71    0.0    0.1
  PUMP-114                26.56        3320      0.00      3.91    700.00     0.746    427.46    0.0    0.0
  PUMP-116               100.00           0      0.00      7.09      7.40     5.154   1531.61    0.0    0.0
  PUMP-118               100.00           0      0.00      7.09      7.40     5.154   1531.61    0.0    0.0
  PUMP-120                 0.00           0      0.00      0.00      0.00     0.000      0.00    0.0    0.0
  PUMP-122                 0.00           0      0.00      0.00      0.00     0.000      0.00    0.0    0.0
  PUMP-14                 29.35        1327      0.00      4.98     91.22     1.022    248.75    0.0    0.1
  PUMP-16                  3.63         246      0.00      7.54     87.48     0.186     45.57    0.0    0.0
  PUMP-18                 86.28          60      0.00      0.19    420.99     0.109     34.04    0.0    0.0
  PUMP-20                 86.14          40      0.00      0.16    420.99     0.087     27.64    0.0    0.0
  PUMP-22                  3.14         129      0.00     15.95    500.00     0.348     26.40    0.0   22.1
  PUMP-24                  2.01           5      0.00      1.48    500.00     0.022      2.89    0.0    0.2
  PUMP-26                  0.67         132      0.00     45.86    228.61     0.177     44.32    0.0    0.0
  PUMP-28                 10.54         487      0.00      9.49    554.94     0.698    231.56    0.0    0.5
  PUMP-30                  7.73        1757      0.00     53.29    568.93     2.747  27698.11    0.0   77.0
  PUMP-32                  1.26           9      0.00      3.17    568.93     0.032    155.82    0.0    0.7
  PUMP-34                 11.94           0      0.00      0.94      0.99     0.082     20.09    0.0    0.0
  PUMP-36                 11.94           0      0.00      0.94      0.99     0.082     20.09    0.0    0.0
  PUMP-38                  0.84         261      0.00    149.75    494.43     0.821    876.84    0.0   93.9
  PUMP-40                  0.00           0      0.00      0.00      0.00     0.000      0.00    0.0    0.0
  PUMP-42                 16.43        2350      0.00     11.22    217.83     1.302    245.56    0.0    0.0
  PUMP-44                  0.19          36      0.00     28.33    217.83     0.029      5.50    0.0    0.0
  PUMP-46                  5.10         182      0.00     12.05    400.00     0.470     34.75    0.0   15.3
  PUMP-48                  2.78          37      0.00      2.44    400.00     0.056      6.01    0.0    0.1
  PUMP-50                  2.26         865      0.00     99.43    300.00     1.500     44.06    0.0   83.9
  PUMP-52                  0.27           1      0.00      2.20    300.00     0.003      0.20    0.0    0.4
  PUMP-54                  1.53         135      0.00     92.25    800.00     0.719    194.22    0.0   40.8
  PUMP-56                  0.00           0      0.00      0.00      0.00     0.000      0.00    0.0    0.0
  PUMP-58                 76.80        1433      0.00      0.65     17.06     0.379     29.77    0.0    0.0
  PUMP-60                 75.57        1067      0.00      0.66     17.06     0.379     29.77    0.0    0.0
  PUMP-62                  0.03           6      0.00    391.15    700.00     0.050     89.40    0.0  100.0
  PUMP-64                  0.00           0      0.00      0.00      0.00     0.000      0.00    0.0    0.0
  PUMP-66                  3.14         187      0.00     30.86    672.54     0.540    173.44    0.0    2.1
  PUMP-68                  0.00           0      0.00      0.00      0.00     0.000      0.00    0.0    0.0
  PUMP-70                 25.58         173      0.00      0.59      7.78     0.110     38.15    0.0    0.0
  PUMP-72                 25.42         173      0.00      0.59      7.78     0.109     37.59    0.0    0.0
  PUMP-74                 25.37         173      0.00      0.59      7.78     0.109     37.50    0.0    0.0
  PUMP-76                 17.46        1429      0.00     72.57    765.08     7.005    165.38    0.0   36.1
  PUMP-78                 11.15           0      0.00      0.88     50.83     0.071     15.96    0.0    0.0
  PUMP-80                  0.62          76      0.00     48.12    242.08     0.188    236.88    0.0  100.0
  PUMP-82                  0.01           2      0.00     29.14     49.44     0.003      1.96    0.0  100.0
  PUMP-84                  0.35         168      0.00   1080.01   1200.00     2.600   2196.77    0.0   97.9
  PUMP-86                  0.00           0      0.00      0.00      0.00     0.000      0.00    0.0    0.0
  PUMP-88                  2.63        1111      0.00     92.22    180.00     1.581  22343.64    0.0    0.0
  PUMP-90                  0.00           0      0.00      0.00      0.00     0.000      0.00    0.0    0.0
  PUMP-92                  2.27         416      0.00     34.03    169.37     0.469    881.71    0.0   97.8
  PUMP-94                  0.02           5      0.00      0.03      0.03     0.000      0.00    0.0    0.0
  PUMP-96                  0.87         199      0.00    169.50    250.00     0.959  13554.59    0.0    0.0
  PUMP-98                  0.00           0      0.00      0.00      0.00     0.000      0.00    0.0    0.0
  

  Analysis begun on:  Tue Jun 23 20:55:38 2026
  Analysis ended on:  Tue Jun 23 20:57:54 2026
  Total elapsed time: 00:02:16