
  EPA STORM WATER MANAGEMENT MODEL - VERSION 5.2 (Build 5.2.4)
  ------------------------------------------------------------

  
  ERROR 207: duplicate ID name 100_years_75%_Winter_Profile_Storms-281-15.000_min_+20%_Climate_Change-100yr at line 9669 of [RAINGAGE] section:
  100_years_75%_Winter_Profile_Storms-281-15.000_min_+20%_Climate_Change-100yr INTENSITY 00:00:09 1.0      TIMESERIES 100_years_75%_Winter_Profile_Storms-281-15.000_min_+20%_Climate_Change-100yr_TS

  
  ERROR 207: duplicate ID name 100_years_75%_Winter_Profile_Storms-281-30.000_min_+20%_Climate_Change-100yr at line 9670 of [RAINGAGE] section:
  100_years_75%_Winter_Profile_Storms-281-30.000_min_+20%_Climate_Change-100yr INTENSITY 00:00:18 1.0      TIMESERIES 100_years_75%_Winter_Profile_Storms-281-30.000_min_+20%_Climate_Change-100yr_TS

  
  ERROR 207: duplicate ID name 100_years_75%_Winter_Profile_Storms-281-60.000_min_+20%_Climate_Change-100yr at line 9671 of [RAINGAGE] section:
  100_years_75%_Winter_Profile_Storms-281-60.000_min_+20%_Climate_Change-100yr INTENSITY 00:00:36 1.0      TIMESERIES 100_years_75%_Winter_Profile_Storms-281-60.000_min_+20%_Climate_Change-100yr_TS

  
  ERROR 207: duplicate ID name 100_years_75%_Winter_Profile_Storms-281-120.000_min_+20%_Climate_Change-100yr at line 9672 of [RAINGAGE] section:
  100_years_75%_Winter_Profile_Storms-281-120.000_min_+20%_Climate_Change-100yr INTENSITY 00:01:12 1.0      TIMESERIES 100_years_75%_Winter_Profile_Storms-281-120.000_min_+20%_Climate_Change-100yr_TS

  
  ERROR 207: duplicate ID name SWC3-14 at line 9677 of [JUNC] section:
  SWC3-14          302.14566929013 5.364173228325 0          0          0         

  
  ERROR 207: duplicate ID name CP3-15 at line 9682 of [OUTFALL] section:
  CP3-15           303.83858267595 FREE                        NO                       

  
  ERROR 207: duplicate ID name SWC3-13 at line 9687 of [STORAGE] section:
  SWC3-13          302.84120734787 5.364173228325 1.65       FUNCTIONAL 0         0         12       0        0       

  
  ERROR 207: duplicate ID name SWC3-7 at line 9688 of [STORAGE] section:
  SWC3-7           310.711942255975 6.42388451440996 0          FUNCTIONAL 0         0         12       0        0       

  
  ERROR 207: duplicate ID name SWC3-12 at line 9689 of [STORAGE] section:
  SWC3-12          304.609580051275 5.364173228325 0.87       FUNCTIONAL 0         0         12       0        0       

  
  ERROR 207: duplicate ID name SWC3-10 at line 9690 of [STORAGE] section:
  SWC3-10          307.2178477678 5.364173228325 0          FUNCTIONAL 0         0         12       0        0       

  
  ERROR 207: duplicate ID name SWC3-11 at line 9691 of [STORAGE] section:
  SWC3-11          306.8241469804 5.364173228325 0          FUNCTIONAL 0         0         12       0        0       

  
  ERROR 207: duplicate ID name SWC3-9 at line 9692 of [STORAGE] section:
  SWC3-9           307.9396325447 5.98753280837497 0          FUNCTIONAL 0         0         12       0        0       

  
  ERROR 207: duplicate ID name SWC3-8 at line 9693 of [STORAGE] section:
  SWC3-8           309.1207349069 6.30905511808504 0          FUNCTIONAL 0         0         12       0        0       

  
  ERROR 207: duplicate ID name SWC3-6 at line 9694 of [STORAGE] section:
  SWC3-6           311.696194224475 6.73556430443506 0          FUNCTIONAL 0         0         12       0        0       

  
  ERROR 207: duplicate ID name SWC3-1 at line 9695 of [STORAGE] section:
  SWC3-1           314.104330707405 5.364173228325 0          FUNCTIONAL 0         0         12       0        0       

  
  ERROR 207: duplicate ID name 300.000 at line 9700 of [CONDUIT] section:
  300.000          SWC3-1           SWC3-6           136.459973752735 0.012      0.265748031495036 1.29593175852506 0          0         

  
  ERROR 207: duplicate ID name 300.001 at line 9701 of [CONDUIT] section:
  300.001          SWC3-6           SWC3-7           164.48162729593 0.012      0          0          0          0         

  
  ERROR 207: duplicate ID name 300.002 at line 9702 of [CONDUIT] section:
  300.002          SWC3-7           SWC3-8           224.04855642955 0.012      0          0.246062992125019 0          0         

  
  ERROR 207: duplicate ID name 300.003 at line 9703 of [CONDUIT] section:
  300.003          SWC3-8           SWC3-9           197.02755905433 0.012      0          0          0          0         

  
  ERROR 207: duplicate ID name 300.004 at line 9704 of [CONDUIT] section:
  300.004          SWC3-9           SWC3-10          164.078083988845 0.012      0          0.0328083989500101 0          0         

  
  ERROR 207: duplicate ID name 300.005 at line 9705 of [CONDUIT] section:
  300.005          SWC3-10          SWC3-11          30.66272965867 0.012      0.0328083989500101 0.262467191599967 0          0         

  
  ERROR 207: duplicate ID name 300.006 at line 9706 of [CONDUIT] section:
  300.006          SWC3-11          SWC3-12          230.37401574711 0.012      0.262467191599967 0.869422572174983 0          0         

  
  ERROR 207: duplicate ID name 300.007 at line 9707 of [CONDUIT] section:
  300.007          SWC3-12          SWC3-13          229.78346456601 0.012      0.869422572174983 1.65354330707999 0          0         

  
  ERROR 207: duplicate ID name 300.008 at line 9708 of [CONDUIT] section:
  300.008          SWC3-13          SWC3-14          87.54593175818 0.012      1.65354330707999 1.85695538057001 0          0         

  
  ERROR 207: duplicate ID name 300.009 at line 9709 of [CONDUIT] section:
  300.009          SWC3-14          CP3-15           21.51574803141 0.012      1.85695538057001 0          0          0         


  Analysis begun on:  Tue Jun 23 20:57:55 2026
  Analysis ended on:  Tue Jun 23 20:57:55 2026
  Total elapsed time: < 1 sec