
  EPA STORM WATER MANAGEMENT MODEL - VERSION 5.2 (Build 5.2.4)
  ------------------------------------------------------------

  
  ****************
  Analysis Options
  ****************
  Flow Units ............... CFS
  Process Models:
    Rainfall/Runoff ........ YES
    RDII ................... NO
    Snowmelt ............... NO
    Groundwater ............ NO
    Flow Routing ........... YES
    Ponding Allowed ........ YES
    Water Quality .......... NO
  Flow Routing Method ...... DYNWAVE
  Surcharge Method ......... EXTRAN
  Starting Date ............ 01/01/2000 00:00:00
  Ending Date .............. 01/01/2000 00:15:00
  Antecedent Dry Days ...... 0.0
  Report Time Step ......... 00:00:01
  Routing Time Step ........ 1.00 sec
  Variable Time Step ....... NO
  Maximum Trials ........... 8
  Number of Threads ........ 1
  Head Tolerance ........... 0.005000 ft
  
  
  **************************        Volume        Volume
  Flow Routing Continuity        acre-feet      10^6 gal
  **************************     ---------     ---------
  Dry Weather Inflow .......         0.000         0.000
  Wet Weather Inflow .......         0.000         0.000
  Groundwater Inflow .......         0.000         0.000
  RDII Inflow ..............         0.000         0.000
  External Inflow ..........         0.106         0.035
  External Outflow .........         0.050         0.016
  Flooding Loss ............         0.000         0.000
  Evaporation Loss .........         0.000         0.000
  Exfiltration Loss ........         0.000         0.000
  Initial Stored Volume ....         0.001         0.000
  Final Stored Volume ......         0.030         0.010
  Continuity Error (%) .....        25.358
  
  
  *************************
  Highest Continuity Errors
  *************************
  Node SWC3-7 (26.81%)
  Node SWC3-12 (18.05%)
  Node SWC3-9 (17.76%)
  Node SWC3-6 (16.64%)
  Node SWC3-8 (14.87%)
  
  
  ********************************
  Highest Flow Instability Indexes
  ********************************
  All links are stable.
  
  
  *********************************
  Most Frequent Nonconverging Nodes
  *********************************
  Convergence obtained at all time steps.
  
  
  *************************
  Routing Time Step Summary
  *************************
  Minimum Time Step           :     1.00 sec
  Average Time Step           :     1.00 sec
  Maximum Time Step           :     1.00 sec
  % of Time in Steady State   :     0.00
  Average Iterations per Step :     2.01
  % of Steps Not Converging   :     0.00
  
  
  ******************
  Node Depth Summary
  ******************
  
  ---------------------------------------------------------------------------------
                                 Average  Maximum  Maximum  Time of Max    Reported
                                   Depth    Depth      HGL   Occurrence   Max Depth
  Node                 Type         Feet     Feet     Feet  days hr:min        Feet
  ---------------------------------------------------------------------------------
  SWC3-14              JUNCTION     2.00     2.98   305.13     0  00:11        2.98
  CP3-15               OUTFALL      0.51     0.91   304.75     0  00:11        0.91
  SWC3-13              STORAGE      2.57     3.60   306.44     0  00:12        3.60
  SWC3-7               STORAGE      1.71     4.49   315.20     0  00:14        4.49
  SWC3-12              STORAGE      2.22     4.12   308.73     0  00:13        4.12
  SWC3-10              STORAGE      1.34     3.46   310.68     0  00:14        3.46
  SWC3-11              STORAGE      1.47     3.63   310.46     0  00:14        3.63
  SWC3-9               STORAGE      1.48     3.77   311.71     0  00:14        3.77
  SWC3-8               STORAGE      1.32     3.47   312.59     0  00:14        3.47
  SWC3-6               STORAGE      1.67     4.55   316.25     0  00:14        4.55
  SWC3-1               STORAGE      1.20     2.99   317.09     0  00:12        2.99
  
  
  *******************
  Node Inflow Summary
  *******************
  
  -------------------------------------------------------------------------------------------------
                                  Maximum  Maximum                  Lateral       Total        Flow
                                  Lateral    Total  Time of Max      Inflow      Inflow     Balance
                                   Inflow   Inflow   Occurrence      Volume      Volume       Error
  Node                 Type           CFS      CFS  days hr:min    10^6 gal    10^6 gal     Percent
  -------------------------------------------------------------------------------------------------
  SWC3-14              JUNCTION      0.49     4.92     0  00:11     0.00158      0.0165       2.089
  CP3-15               OUTFALL       0.00     4.92     0  00:11           0      0.0162       0.000
  SWC3-13              STORAGE       1.29     4.58     0  00:11     0.00414      0.0164       7.805
  SWC3-7               STORAGE       1.46     2.69     0  00:09     0.00469      0.0103      36.627
  SWC3-12              STORAGE       1.29     4.21     0  00:08     0.00414      0.0152      22.028
  SWC3-10              STORAGE       0.65     3.54     0  00:08     0.00207      0.0135       9.099
  SWC3-11              STORAGE       0.25     3.64     0  00:08    0.000789      0.0129      13.738
  SWC3-9               STORAGE       1.26     3.73     0  00:10     0.00405      0.0143      21.592
  SWC3-8               STORAGE       1.64     3.40     0  00:10     0.00528      0.0125      17.469
  SWC3-6               STORAGE       1.23     1.87     0  00:09     0.00496     0.00728      19.964
  SWC3-1               STORAGE       0.92     0.92     0  00:09     0.00296     0.00296      16.061
  
  
  **********************
  Node Surcharge Summary
  **********************
  
  Surcharging occurs when water rises above the top of the highest conduit.
  ---------------------------------------------------------------------
                                               Max. Height   Min. Depth
                                   Hours       Above Crown    Below Rim
  Node                 Type      Surcharged           Feet         Feet
  ---------------------------------------------------------------------
  SWC3-14              JUNCTION        0.10          0.140        2.383
  
  
  *********************
  Node Flooding Summary
  *********************
  
  No nodes were flooded.
  
  
  **********************
  Storage Volume Summary
  **********************
  
  ------------------------------------------------------------------------------------------------
                         Average    Avg   Evap  Exfil     Maximum    Max    Time of Max    Maximum
                          Volume   Pcnt   Pcnt   Pcnt      Volume   Pcnt     Occurrence    Outflow
  Storage Unit          1000 ftł   Full   Loss   Loss    1000 ftł   Full    days hr:min        CFS
  ------------------------------------------------------------------------------------------------
  SWC3-13                  0.031   47.8    0.0    0.0       0.043   67.1       0  00:12       4.54
  SWC3-7                   0.021   26.7    0.0    0.0       0.054   69.9       0  00:14       1.86
  SWC3-12                  0.027   41.4    0.0    0.0       0.049   76.8       0  00:13       3.81
  SWC3-10                  0.016   24.9    0.0    0.0       0.042   64.5       0  00:14       3.42
  SWC3-11                  0.018   27.4    0.0    0.0       0.044   67.7       0  00:14       3.27
  SWC3-9                   0.018   24.7    0.0    0.0       0.045   62.9       0  00:14       2.97
  SWC3-8                   0.016   21.0    0.0    0.0       0.042   55.0       0  00:14       2.64
  SWC3-6                   0.020   24.8    0.0    0.0       0.055   67.6       0  00:14       1.42
  SWC3-1                   0.014   22.3    0.0    0.0       0.036   55.7       0  00:12       0.67
  
  
  ***********************
  Outfall Loading Summary
  ***********************
  
  -----------------------------------------------------------
                         Flow       Avg       Max       Total
                         Freq      Flow      Flow      Volume
  Outfall Node           Pcnt       CFS       CFS    10^6 gal
  -----------------------------------------------------------
  CP3-15                68.97      3.49      4.92       0.016
  -----------------------------------------------------------
  System                68.97      3.49      4.92       0.016
  
  
  ********************
  Link Flow Summary
  ********************
  
  -----------------------------------------------------------------------------
                                 Maximum  Time of Max   Maximum    Max/    Max/
                                  |Flow|   Occurrence   |Veloc|    Full    Full
  Link                 Type          CFS  days hr:min    ft/sec    Flow   Depth
  -----------------------------------------------------------------------------
  300.000              CONDUIT      0.67     0  00:09      3.55    1.14    1.00
  300.001              CONDUIT      1.42     0  00:07      3.45    1.07    1.00
  300.002              CONDUIT      1.86     0  00:14      4.35    1.40    1.00
  300.003              CONDUIT      2.64     0  00:08      3.75    0.92    1.00
  300.004              CONDUIT      2.97     0  00:12      3.91    1.24    1.00
  300.005              CONDUIT      3.42     0  00:08      4.64    1.27    1.00
  300.006              CONDUIT      3.27     0  00:14      4.30    1.06    1.00
  300.007              CONDUIT      3.81     0  00:14      5.00    1.57    1.00
  300.008              CONDUIT      4.54     0  00:12      5.97    1.64    1.00
  300.009              CONDUIT      4.92     0  00:11      6.55    1.52    0.96
  
  
  ***************************
  Flow Classification Summary
  ***************************
  
  -------------------------------------------------------------------------------------
                      Adjusted    ---------- Fraction of Time in Flow Class ---------- 
                       /Actual         Up    Down  Sub   Sup   Up    Down  Norm  Inlet 
  Conduit               Length    Dry  Dry   Dry   Crit  Crit  Crit  Crit  Ltd   Ctrl  
  -------------------------------------------------------------------------------------
  300.000                 1.00   0.16  0.00  0.00  0.40  0.00  0.00  0.44  0.00  0.00
  300.001                 1.00   0.01  0.00  0.00  0.76  0.23  0.00  0.00  0.05  0.00
  300.002                 1.00   0.01  0.00  0.00  0.45  0.00  0.00  0.54  0.00  0.00
  300.003                 1.00   0.01  0.00  0.00  0.72  0.27  0.00  0.00  0.03  0.00
  300.004                 1.00   0.01  0.00  0.00  0.89  0.00  0.00  0.09  0.00  0.00
  300.005                 1.00   0.08  0.00  0.00  0.48  0.00  0.00  0.44  0.00  0.00
  300.006                 1.00   0.00  0.20  0.00  0.66  0.14  0.00  0.00  0.07  0.00
  300.007                 1.00   0.00  0.00  0.00  0.97  0.00  0.00  0.03  0.23  0.00
  300.008                 1.00   0.03  0.00  0.00  0.68  0.00  0.00  0.29  0.00  0.00
  300.009                 1.00   0.31  0.00  0.00  0.49  0.20  0.00  0.00  0.00  0.00
  
  
  *************************
  Conduit Surcharge Summary
  *************************
  
  ----------------------------------------------------------------------------
                                                           Hours        Hours 
                         --------- Hours Full --------   Above Full   Capacity
  Conduit                Both Ends  Upstream  Dnstream   Normal Flow   Limited
  ----------------------------------------------------------------------------
  300.000                     0.10      0.11      0.10      0.07         0.05
  300.001                     0.13      0.13      0.13      0.03         0.02
  300.002                     0.11      0.13      0.11      0.13         0.11
  300.003                     0.11      0.11      0.12      0.01         0.01
  300.004                     0.11      0.12      0.11      0.13         0.11
  300.005                     0.11      0.11      0.11      0.12         0.11
  300.006                     0.11      0.11      0.12      0.03         0.03
  300.007                     0.12      0.12      0.12      0.12         0.12
  300.008                     0.10      0.12      0.10      0.12         0.10
  300.009                     0.01      0.10      0.01      0.12         0.01
  

  Analysis begun on:  Tue Jun 23 20:57:55 2026
  Analysis ended on:  Tue Jun 23 20:57:55 2026
  Total elapsed time: < 1 sec