
  EPA STORM WATER MANAGEMENT MODEL - VERSION 5.2 (Build 5.2.4)
  ------------------------------------------------------------

  
  ERROR 207: duplicate ID name J1 at line 183 of [JUNC] section:
  J1               0.02       20         0          0          0         

  
  ERROR 207: duplicate ID name J2 at line 184 of [JUNC] section:
  J2               0.025      20         0          0          0         

  
  ERROR 207: duplicate ID name J3 at line 185 of [JUNC] section:
  J3               0.03       20         0          0          0         

  
  ERROR 207: duplicate ID name J4 at line 186 of [JUNC] section:
  J4               0.034      20         0          0          0         

  
  ERROR 207: duplicate ID name J5 at line 187 of [JUNC] section:
  J5               0.038      20         0          0          0         

  
  ERROR 207: duplicate ID name J6 at line 188 of [JUNC] section:
  J6               0.044      20         0          0          0         

  
  ERROR 207: duplicate ID name J7 at line 189 of [JUNC] section:
  J7               0.049      20         0          0          0         

  
  ERROR 207: duplicate ID name J8 at line 190 of [JUNC] section:
  J8               0.054      20         0          0          0         

  
  ERROR 207: duplicate ID name OF1 at line 195 of [OUTFALL] section:
  OF1              0          FIXED      2                NO                       

  
  ERROR 207: duplicate ID name OF2 at line 196 of [OUTFALL] section:
  OF2              0          FIXED      5                NO                       

  
  ERROR 207: duplicate ID name OF3 at line 197 of [OUTFALL] section:
  OF3              0          FREE                        NO                       

  
  ERROR 207: duplicate ID name C1 at line 202 of [CONDUIT] section:
  C1               J1               OF1              100.624    0.01       0          0          0          0         

  
  ERROR 207: duplicate ID name C2 at line 203 of [CONDUIT] section:
  C2               J2               J1               97.293     0.01       0          0          0          0         

  
  ERROR 207: duplicate ID name C3 at line 204 of [CONDUIT] section:
  C3               J3               J2               96.047     0.01       0          0          0          0         

  
  ERROR 207: duplicate ID name C4 at line 205 of [CONDUIT] section:
  C4               J4               J3               86.128     0.01       0          0          0          0         

  
  ERROR 207: duplicate ID name C5 at line 206 of [CONDUIT] section:
  C5               J5               J4               87.092     0.01       0          0          0          0         

  
  ERROR 207: duplicate ID name C6 at line 207 of [CONDUIT] section:
  C6               J6               J5               93.005     0.01       0          0          0          0         

  
  ERROR 207: duplicate ID name C7 at line 208 of [CONDUIT] section:
  C7               J7               J6               98.082     0.01       0          0          0          0         

  
  ERROR 207: duplicate ID name C8 at line 209 of [CONDUIT] section:
  C8               J8               J7               105.688    0.01       0          0          0          0         

  
  ERROR 207: duplicate ID name W1 at line 214 of [WEIR] section:
  W1               J5               OF2              TRANSVERSE   0          1          NO       0        0          YES       

  
  ERROR 207: duplicate ID name W2 at line 215 of [WEIR] section:
  W2               J7               OF3              TRANSVERSE   5          3.33       NO       0        0          YES       


  Analysis begun on:  Tue Jun 23 20:57:55 2026
  Analysis ended on:  Tue Jun 23 20:57:55 2026
  Total elapsed time: < 1 sec