
  EPA STORM WATER MANAGEMENT MODEL - VERSION 5.2 (Build 5.2.4)
  ------------------------------------------------------------

  
  ERROR 305: cannot open report file.at line 130 of [LID_USAGE] section:
  S4              	Planters        	30     	500       	0         	0         	80        	0         	"D:\SWMMandSoftware\SWMM5.013_June2018\EPASWMM5.1.013\Swmm5.1.013UpdateTests\Example4-Drain.txt"	*               	0               


  Analysis begun on:  Tue Jun 23 20:57:56 2026
  Analysis ended on:  Tue Jun 23 20:57:56 2026
  Total elapsed time: < 1 sec