
  EPA STORM WATER MANAGEMENT MODEL - VERSION 5.2 (Build 5.2.4)
  ------------------------------------------------------------

  
  ERROR 205: invalid keyword CROWN_CUTOFF at line 372 of [OPTION] section:
  CROWN_CUTOFF
  
  ERROR 207: duplicate ID name RG1 at line 383 of [RAINGAGE] section:
  RG1             	INTENSITY	1:00    	1.0     	TIMESERIES	TS1             

  
  ERROR 207: duplicate ID name 1 at line 388 of [SUBCATCHMENT] section:
  1               	RG1             	9               	10      	50      	500     	0.01    	0       	                

  
  ERROR 207: duplicate ID name 2 at line 389 of [SUBCATCHMENT] section:
  2               	RG1             	10              	10      	50      	500     	0.01    	0       	                

  
  ERROR 207: duplicate ID name 3 at line 390 of [SUBCATCHMENT] section:
  3               	RG1             	13              	5       	50      	500     	0.01    	0       	                

  
  ERROR 207: duplicate ID name 4 at line 391 of [SUBCATCHMENT] section:
  4               	RG1             	22              	5       	50      	500     	0.01    	0       	                

  
  ERROR 207: duplicate ID name 5 at line 392 of [SUBCATCHMENT] section:
  5               	RG1             	15              	15      	50      	500     	0.01    	0       	                

  
  ERROR 207: duplicate ID name 6 at line 393 of [SUBCATCHMENT] section:
  6               	RG1             	23              	12      	10      	500     	0.01    	0       	                

  
  ERROR 207: duplicate ID name 7 at line 394 of [SUBCATCHMENT] section:
  7               	RG1             	19              	4       	10      	500     	0.01    	0       	                

  
  ERROR 207: duplicate ID name 8 at line 395 of [SUBCATCHMENT] section:
  8               	RG1             	18              	10      	10      	500     	0.01    	0       	                

  
  ERROR 207: duplicate ID name 9 at line 424 of [JUNC] section:
  9               	1000      	3         	0         	0         	0         

  
  ERROR 207: duplicate ID name 10 at line 425 of [JUNC] section:
  10              	995       	3         	0         	0         	0         

  
  ERROR 207: duplicate ID name 13 at line 426 of [JUNC] section:
  13              	995       	3         	0         	0         	0         

  
  ERROR 207: duplicate ID name 14 at line 427 of [JUNC] section:
  14              	990       	3         	0         	0         	0         

  
  ERROR 207: duplicate ID name 15 at line 428 of [JUNC] section:
  15              	987       	3         	0         	0         	0         

  
  ERROR 207: duplicate ID name 16 at line 429 of [JUNC] section:
  16              	985       	3         	0         	0         	0         

  
  ERROR 207: duplicate ID name 17 at line 430 of [JUNC] section:
  17              	980       	3         	0         	0         	0         

  
  ERROR 207: duplicate ID name 19 at line 431 of [JUNC] section:
  19              	1010      	3         	0         	0         	0         

  
  ERROR 207: duplicate ID name 20 at line 432 of [JUNC] section:
  20              	1005      	3         	0         	0         	0         

  
  ERROR 207: duplicate ID name 21 at line 433 of [JUNC] section:
  21              	990       	3         	0         	0         	0         

  
  ERROR 207: duplicate ID name 22 at line 434 of [JUNC] section:
  22              	987       	3         	0         	0         	0         

  
  ERROR 207: duplicate ID name 23 at line 435 of [JUNC] section:
  23              	990       	3         	0         	0         	0         

  
  ERROR 207: duplicate ID name 24 at line 436 of [JUNC] section:
  24              	984       	3         	0         	0         	0         

  
  ERROR 207: duplicate ID name 18 at line 441 of [OUTFALL] section:
  18              	975       	FREE      	                	NO      	                

  
  ERROR 207: duplicate ID name 1 at line 446 of [CONDUIT] section:
  1               	9               	10              	400       	0.01      	0         	0         	0         	0         

  
  ERROR 207: duplicate ID name 4 at line 447 of [CONDUIT] section:
  4               	19              	20              	200       	0.01      	0         	0         	0         	0         

  
  ERROR 207: duplicate ID name 5 at line 448 of [CONDUIT] section:
  5               	20              	21              	200       	0.01      	0         	0         	0         	0         

  
  ERROR 207: duplicate ID name 6 at line 449 of [CONDUIT] section:
  6               	10              	21              	400       	0.01      	0         	1         	0         	0         

  
  ERROR 207: duplicate ID name 7 at line 450 of [CONDUIT] section:
  7               	21              	22              	300       	0.01      	1         	1         	0         	0         

  
  ERROR 207: duplicate ID name 8 at line 451 of [CONDUIT] section:
  8               	22              	16              	300       	0.01      	0         	0         	0         	0         

  
  ERROR 207: duplicate ID name 10 at line 452 of [CONDUIT] section:
  10              	17              	18              	400       	0.01      	0         	0         	0         	0         

  
  ERROR 207: duplicate ID name 11 at line 453 of [CONDUIT] section:
  11              	13              	14              	400       	0.01      	0         	0         	0         	0         

  
  ERROR 207: duplicate ID name 12 at line 454 of [CONDUIT] section:
  12              	14              	15              	400       	0.01      	0         	0         	0         	0         

  
  ERROR 207: duplicate ID name 13 at line 455 of [CONDUIT] section:
  13              	15              	16              	400       	0.01      	0         	0         	0         	0         

  
  ERROR 207: duplicate ID name 14 at line 456 of [CONDUIT] section:
  14              	23              	24              	400       	0.01      	0         	0         	0         	0         

  
  ERROR 207: duplicate ID name 15 at line 457 of [CONDUIT] section:
  15              	16              	24              	100       	0.01      	0         	0         	0         	0         

  
  ERROR 207: duplicate ID name 16 at line 458 of [CONDUIT] section:
  16              	24              	17              	400       	0.01      	0         	0         	0         	0         

  
  ERROR 207: duplicate ID name TSS at line 480 of [POLLUT] section:
  TSS             	MG/L  	0.0       	0.0       	0         	0.0       	NO        	*               	0.0       	0         	0         

  
  ERROR 207: duplicate ID name Lead at line 481 of [POLLUT] section:
  Lead            	UG/L  	0.0       	0.0       	0         	0.0       	NO        	TSS             	0.2       	0         	0         

  
  ERROR 207: duplicate ID name Residential at line 487 of [LANDUSE] section:
  Residential     	          	          	          

  
  ERROR 207: duplicate ID name Undeveloped at line 488 of [LANDUSE] section:
  Undeveloped     	          	          	          


  Analysis begun on:  Tue Jun 23 20:57:55 2026
  Analysis ended on:  Tue Jun 23 20:57:55 2026
  Total elapsed time: < 1 sec