
  EPA STORM WATER MANAGEMENT MODEL - VERSION 5.2 (Build 5.2.4)
  ------------------------------------------------------------

  
  ERROR 205: invalid keyword CROWN_CUTOFF at line 343 of [OPTION] section:
  CROWN_CUTOFF
  
  ERROR 207: duplicate ID name KRO3001 at line 354 of [JUNC] section:
  KRO3001         	556.19    	10        	0         	0         	0         

  
  ERROR 207: duplicate ID name KRO6015 at line 355 of [JUNC] section:
  KRO6015         	585.98    	8         	0         	0         	0         

  
  ERROR 207: duplicate ID name KRO6016 at line 356 of [JUNC] section:
  KRO6016         	584.14    	9         	0         	0         	0         

  
  ERROR 207: duplicate ID name KRO6017 at line 357 of [JUNC] section:
  KRO6017         	582.01    	14        	0         	0         	0         

  
  ERROR 207: duplicate ID name KRO1002 at line 358 of [JUNC] section:
  KRO1002         	594.89    	3         	0         	0         	0         

  
  ERROR 207: duplicate ID name KRO1003 at line 359 of [JUNC] section:
  KRO1003         	594.73    	5         	0         	0         	0         

  
  ERROR 207: duplicate ID name KRO1004 at line 360 of [JUNC] section:
  KRO1004         	588.09    	8         	0         	0         	0         

  
  ERROR 207: duplicate ID name KRO1005 at line 361 of [JUNC] section:
  KRO1005         	579.40    	16        	0         	0         	0         

  
  ERROR 207: duplicate ID name KRO1006 at line 362 of [JUNC] section:
  KRO1006         	602.48    	7         	0         	0         	0         

  
  ERROR 207: duplicate ID name KRO1007 at line 363 of [JUNC] section:
  KRO1007         	596.76    	15        	0         	0         	0         

  
  ERROR 207: duplicate ID name KRO1008 at line 364 of [JUNC] section:
  KRO1008         	593.58    	12        	0         	0         	0         

  
  ERROR 207: duplicate ID name KRO1009 at line 365 of [JUNC] section:
  KRO1009         	590.56    	15        	0         	0         	0         

  
  ERROR 207: duplicate ID name KRO1010 at line 366 of [JUNC] section:
  KRO1010         	584.82    	11        	0         	0         	0         

  
  ERROR 207: duplicate ID name KRO1012 at line 367 of [JUNC] section:
  KRO1012         	584.25    	10        	0         	0         	0         

  
  ERROR 207: duplicate ID name KRO1013 at line 368 of [JUNC] section:
  KRO1013         	591.58    	14        	0         	0         	0         

  
  ERROR 207: duplicate ID name KRO1014 at line 369 of [JUNC] section:
  KRO1014         	592.41    	6         	0         	0         	0         

  
  ERROR 207: duplicate ID name KRO1015 at line 370 of [JUNC] section:
  KRO1015         	586.69    	10        	0         	0         	0         

  
  ERROR 207: duplicate ID name KRO2001 at line 371 of [JUNC] section:
  KRO2001         	576.29    	8         	0         	0         	0         

  
  ERROR 207: duplicate ID name KRO4004 at line 372 of [JUNC] section:
  KRO4004         	587.39    	11        	0         	0         	0         

  
  ERROR 207: duplicate ID name KRO4008 at line 373 of [JUNC] section:
  KRO4008         	583.48    	10        	0         	0         	0         

  
  ERROR 207: duplicate ID name KRO4009 at line 374 of [JUNC] section:
  KRO4009         	581.68    	8         	0         	0         	0         

  
  ERROR 207: duplicate ID name KRO4010 at line 375 of [JUNC] section:
  KRO4010         	579.88    	12        	0         	0         	0         

  
  ERROR 207: duplicate ID name KRO4011 at line 376 of [JUNC] section:
  KRO4011         	578.43    	10        	0         	0         	0         

  
  ERROR 207: duplicate ID name KRO4012 at line 377 of [JUNC] section:
  KRO4012         	564.71    	10        	0         	0         	0         

  
  ERROR 207: duplicate ID name KRO4013 at line 378 of [JUNC] section:
  KRO4013         	567.88    	12        	0         	0         	0         

  
  ERROR 207: duplicate ID name KRO4014 at line 379 of [JUNC] section:
  KRO4014         	573.18    	14        	0         	0         	0         

  
  ERROR 207: duplicate ID name KRO4015 at line 380 of [JUNC] section:
  KRO4015         	563.71    	10        	0         	0         	0         

  
  ERROR 207: duplicate ID name KRO4016 at line 381 of [JUNC] section:
  KRO4016         	563.24    	10        	0         	0         	0         

  
  ERROR 207: duplicate ID name KRO4017 at line 382 of [JUNC] section:
  KRO4017         	558.36    	10        	0         	0         	0         

  
  ERROR 207: duplicate ID name KRO4018 at line 383 of [JUNC] section:
  KRO4018         	556.02    	9         	0         	0         	0         

  
  ERROR 207: duplicate ID name KRO4019 at line 384 of [JUNC] section:
  KRO4019         	552.42    	10        	0         	0         	0         

  
  ERROR 207: duplicate ID name KRO2005 at line 389 of [OUTFALL] section:
  KRO2005         	574.32    	FREE      	                	NO      	                

  
  ERROR 207: duplicate ID name PSO at line 390 of [OUTFALL] section:
  PSO             	548.36    	FREE      	                	NO      	                

  
  ERROR 207: duplicate ID name SU1 at line 396 of [STORAGE] section:
  SU1             	544.74  	17        	0         	FUNCTIONAL	12.566    0         0       	0       	0       

  
  ERROR 207: duplicate ID name KRO3001-KRO3002 at line 401 of [CONDUIT] section:
  KRO3001-KRO3002 	KRO3001         	SU1             	176.7171053	0.013     	0         	5         	0         	0         

  
  ERROR 207: duplicate ID name SU1-PSO at line 403 of [CONDUIT] section:
  SU1-PSO         	SU1             	PSO             	65.78947368	0.013     	6         	0         	0         	0         

  
  ERROR 207: duplicate ID name KRO1002-KRO1003 at line 404 of [CONDUIT] section:
  KRO1002-KRO1003 	KRO1002         	KRO1003         	27.23684211	0.013     	0         	0         	0         	0         

  
  ERROR 207: duplicate ID name KRO1003-KRO1008 at line 405 of [CONDUIT] section:
  KRO1003-KRO1008 	KRO1003         	KRO1008         	197.7236842	0.013     	0         	0         	0         	0         

  
  ERROR 207: duplicate ID name KRO1004-KRO6016 at line 406 of [CONDUIT] section:
  KRO1004-KRO6016 	KRO1004         	KRO6016         	197.4144737	0.013     	0         	0         	0         	0         

  
  ERROR 207: duplicate ID name KRO1005-KRO2001 at line 407 of [CONDUIT] section:
  KRO1005-KRO2001 	KRO1005         	KRO2001         	134.3092105	0.013     	0         	0         	0         	0         

  
  ERROR 207: duplicate ID name KRO1006-KRO1007 at line 408 of [CONDUIT] section:
  KRO1006-KRO1007 	KRO1006         	KRO1007         	162.5921053	0.013     	0         	0         	0         	0         

  
  ERROR 207: duplicate ID name KRO1007-KRO1008 at line 409 of [CONDUIT] section:
  KRO1007-KRO1008 	KRO1007         	KRO1008         	165.8881579	0.013     	0         	0         	0         	0         

  
  ERROR 207: duplicate ID name KRO1008-KRO1009 at line 410 of [CONDUIT] section:
  KRO1008-KRO1009 	KRO1008         	KRO1009         	157.3223684	0.013     	0         	0         	0         	0         

  
  ERROR 207: duplicate ID name KRO1009-KRO1010 at line 411 of [CONDUIT] section:
  KRO1009-KRO1010 	KRO1009         	KRO1010         	210.9539474	0.013     	0         	0         	0         	0         

  
  ERROR 207: duplicate ID name KRO1010-KRO2001 at line 412 of [CONDUIT] section:
  KRO1010-KRO2001 	KRO1010         	KRO2001         	190.1842105	0.013     	0         	0         	0         	0         

  
  ERROR 207: duplicate ID name KRO1012-KRO4009 at line 413 of [CONDUIT] section:
  KRO1012-KRO4009 	KRO1012         	KRO4009         	128.2631579	0.013     	0         	0         	0         	0         

  
  ERROR 207: duplicate ID name KRO1013-KRO1009 at line 414 of [CONDUIT] section:
  KRO1013-KRO1009 	KRO1013         	KRO1009         	170.1052632	0.013     	0         	0         	0         	0         

  
  ERROR 207: duplicate ID name KRO1014-KRO1013 at line 415 of [CONDUIT] section:
  KRO1014-KRO1013 	KRO1014         	KRO1013         	500       	0.013     	0         	0         	0         	0         

  
  ERROR 207: duplicate ID name KRO1015-KRO4014 at line 416 of [CONDUIT] section:
  KRO1015-KRO4014 	KRO1015         	KRO4014         	151.4342105	0.013     	0         	0         	0         	0         

  
  ERROR 207: duplicate ID name KRO2001-KRO2005 at line 417 of [CONDUIT] section:
  KRO2001-KRO2005 	KRO2001         	KRO2005         	243.7631579	0.013     	0         	0         	0         	0         

  
  ERROR 207: duplicate ID name KRO4004-KRO4008 at line 418 of [CONDUIT] section:
  KRO4004-KRO4008 	KRO4004         	KRO4008         	140       	0.013     	0         	0         	0         	0         

  
  ERROR 207: duplicate ID name KRO4008-KRO4011 at line 419 of [CONDUIT] section:
  KRO4008-KRO4011 	KRO4008         	KRO4011         	78.72368421	0.013     	0         	0         	0         	0         

  
  ERROR 207: duplicate ID name KRO4009-KRO4010 at line 420 of [CONDUIT] section:
  KRO4009-KRO4010 	KRO4009         	KRO4010         	180.0526316	0.013     	0         	0         	0         	0         

  
  ERROR 207: duplicate ID name KRO4010-KRO4011 at line 421 of [CONDUIT] section:
  KRO4010-KRO4011 	KRO4010         	KRO4011         	144.5328947	0.013     	0         	0         	0         	0         

  
  ERROR 207: duplicate ID name KRO4011-KRO4012 at line 422 of [CONDUIT] section:
  KRO4011-KRO4012 	KRO4011         	KRO4012         	198.0723684	0.013     	0         	0         	0         	0         

  
  ERROR 207: duplicate ID name KRO4012-KRO3001 at line 423 of [CONDUIT] section:
  KRO4012-KRO3001 	KRO4012         	KRO3001         	129.0526316	0.013     	0         	0.5       	0         	0         

  
  ERROR 207: duplicate ID name KRO4013-KRO4017 at line 424 of [CONDUIT] section:
  KRO4013-KRO4017 	KRO4013         	KRO4017         	176.5394737	0.013     	0         	0         	0         	0         

  
  ERROR 207: duplicate ID name KRO4014-KRO4015 at line 425 of [CONDUIT] section:
  KRO4014-KRO4015 	KRO4014         	KRO4015         	138.7039474	0.013     	0         	0         	0         	0         

  
  ERROR 207: duplicate ID name KRO4015-KRO4016 at line 426 of [CONDUIT] section:
  KRO4015-KRO4016 	KRO4015         	KRO4016         	16.95394737	0.013     	0         	0         	0         	0         

  
  ERROR 207: duplicate ID name KRO4016-KRO4017 at line 427 of [CONDUIT] section:
  KRO4016-KRO4017 	KRO4016         	KRO4017         	108.7697368	0.013     	0         	0         	0         	0         

  
  ERROR 207: duplicate ID name KRO4017-KRO4018 at line 428 of [CONDUIT] section:
  KRO4017-KRO4018 	KRO4017         	KRO4018         	101.5592105	0.013     	0         	0         	0         	0         

  
  ERROR 207: duplicate ID name KRO4018-KRO4019 at line 429 of [CONDUIT] section:
  KRO4018-KRO4019 	KRO4018         	KRO4019         	159.8486842	0.013     	0         	0         	0         	0         

  
  ERROR 207: duplicate ID name KRO4019-KRO3002 at line 430 of [CONDUIT] section:
  KRO4019-KRO3002 	KRO4019         	SU1             	87.57894737	0.013     	0         	5         	0         	0         

  
  ERROR 207: duplicate ID name KRO6015-KRO6016 at line 431 of [CONDUIT] section:
  KRO6015-KRO6016 	KRO6015         	KRO6016         	91.85526316	0.013     	0         	0         	0         	0         

  
  ERROR 207: duplicate ID name KRO6016-KRO6017 at line 432 of [CONDUIT] section:
  KRO6016-KRO6017 	KRO6016         	KRO6017         	211.9736842	0.013     	0         	0         	0         	0         

  
  ERROR 207: duplicate ID name KRO6017-KRO1005 at line 433 of [CONDUIT] section:
  KRO6017-KRO1005 	KRO6017         	KRO1005         	178.8092105	0.013     	0         	0         	0         	0         

  
  ERROR 207: duplicate ID name PUMP1 at line 438 of [PUMP] section:
  PUMP1           	SU1             	KRO1014         	PUMP_CURVE1     	ON      	0       	0       


  Analysis begun on:  Tue Jun 23 20:57:55 2026
  Analysis ended on:  Tue Jun 23 20:57:55 2026
  Total elapsed time: < 1 sec