
  EPA STORM WATER MANAGEMENT MODEL - VERSION 5.2 (Build 5.2.4)
  ------------------------------------------------------------

  SWMM Example with LIDs 
  
  *************
  Element Count
  *************
  Number of rain gages ...... 1
  Number of subcatchments ... 9
  Number of nodes ........... 1
  Number of links ........... 0
  Number of pollutants ...... 0
  Number of land uses ....... 0
  
  
  ****************
  Raingage Summary
  ****************
                                                      Data       Recording
  Name                 Data Source                    Type       Interval 
  ------------------------------------------------------------------------
  RainGage             2-yr                           INTENSITY    5 min.
  
  
  ********************
  Subcatchment Summary
  ********************
  Name                       Area     Width   %Imperv    %Slope Rain Gage            Outlet              
  -----------------------------------------------------------------------------------------------------------
  S1                         4.55   1587.00     56.80    2.0000 RainGage             Swale4              
  S2                         4.74   1653.00     63.00    2.0000 RainGage             O1                  
  S3                         3.70   1456.00     39.50    3.1000 RainGage             Swale3              
  S4                         6.82   2331.00     49.90    3.1000 RainGage             Swale4              
  S5                         6.60   1670.00     87.70    2.0000 RainGage             O1                  
  S6                         2.58    907.00      0.00    3.1000 RainGage             Swale6              
  Swale3                     0.33     50.00      0.00    0.5000 RainGage             Swale4              
  Swale4                     0.50     50.00      0.00    0.5000 RainGage             Swale6              
  Swale6                     0.41     50.00      0.00    0.5000 RainGage             O1                  


  *******************
  LID Control Summary
  *******************
                                   No. of        Unit        Unit      % Area    % Imperv      % Perv
  Subcatchment     LID Control      Units        Area       Width     Covered     Treated     Treated
  ---------------------------------------------------------------------------------------------------
  S1               RainBarrels         32        5.00        0.00        0.08       17.00        0.00
  S1               InfilTrench          4      532.00      133.00        1.07       40.00        0.00
  S4               Planters            30      500.00        0.00        5.05       80.00        0.00
  S5               GreenRoof            1    18400.00      136.00        6.40        0.00        0.00
  S5               PorousPave           1   232872.00      683.00       81.00        0.00        0.00
  Swale3           Swale                1    14374.80       45.00      100.00        0.00        0.00
  Swale4           Swale                1    21780.00       45.00      100.00        0.00        0.00
  Swale6           Swale                1    17859.60       45.00      100.00        0.00        0.00
  
  
  ************
  Node Summary
  ************
                                           Invert      Max.    Ponded    External
  Name                 Type                 Elev.     Depth      Area    Inflow  
  -------------------------------------------------------------------------------
  O1                   OUTFALL            4962.00      0.00       0.0
  
  
  ****************
  Analysis Options
  ****************
  Flow Units ............... CFS
  Process Models:
    Rainfall/Runoff ........ YES
    RDII ................... NO
    Snowmelt ............... NO
    Groundwater ............ NO
    Flow Routing ........... NO
    Water Quality .......... NO
  Infiltration Method ...... GREEN_AMPT
  Surcharge Method ......... EXTRAN
  Starting Date ............ 01/01/2007 00:00:00
  Ending Date .............. 01/01/2007 12:00:00
  Antecedent Dry Days ...... 0.0
  Report Time Step ......... 00:01:00
  Wet Time Step ............ 00:01:00
  Dry Time Step ............ 01:00:00
  
  
  **************************        Volume         Depth
  Runoff Quantity Continuity     acre-feet        inches
  **************************     ---------       -------
  Initial LID Storage ......         0.045         0.018
  Total Precipitation ......         2.465         0.978
  Evaporation Loss .........         0.099         0.039
  Infiltration Loss ........         1.566         0.622
  Surface Runoff ...........         0.589         0.234
  LID Drainage .............         0.021         0.008
  Final Storage ............         0.236         0.094
  Continuity Error (%) .....        -0.052
  
  
  **************************        Volume        Volume
  Flow Routing Continuity        acre-feet      10^6 gal
  **************************     ---------     ---------
  Dry Weather Inflow .......         0.000         0.000
  Wet Weather Inflow .......         0.610         0.199
  Groundwater Inflow .......         0.000         0.000
  RDII Inflow ..............         0.000         0.000
  External Inflow ..........         0.000         0.000
  External Outflow .........         0.610         0.199
  Flooding Loss ............         0.000         0.000
  Evaporation Loss .........         0.000         0.000
  Exfiltration Loss ........         0.000         0.000
  Initial Stored Volume ....         0.000         0.000
  Final Stored Volume ......         0.000         0.000
  Continuity Error (%) .....         0.000
  
  
  ***************************
  Subcatchment Runoff Summary
  ***************************
  
  ------------------------------------------------------------------------------------------------------------------------------
                            Total      Total      Total      Total     Imperv       Perv      Total       Total     Peak  Runoff
                           Precip      Runon       Evap      Infil     Runoff     Runoff     Runoff      Runoff   Runoff   Coeff
  Subcatchment                 in         in         in         in         in         in         in    10^6 gal      CFS
  ------------------------------------------------------------------------------------------------------------------------------
  S1                         0.98       0.00       0.04       0.50       0.51       0.01       0.33        0.04     3.35   0.334
  S2                         0.98       0.00       0.05       0.36       0.58       0.00       0.58        0.07     8.44   0.588
  S3                         0.98       0.00       0.03       0.58       0.36       0.00       0.36        0.04     4.18   0.369
  S4                         0.98       0.00       0.04       0.56       0.43       0.00       0.14        0.03     1.85   0.147
  S5                         0.98       0.00       0.04       0.78       0.10       0.00       0.14        0.03     2.12   0.143
  S6                         0.98       0.00       0.01       0.96       0.00       0.00       0.00        0.00     0.00   0.000
  Swale3                     0.98       4.05       0.01       0.64       0.00       0.00       4.38        0.04     2.29   0.870
  Swale4                     0.98       7.82       0.02       1.12       0.00       0.00       7.57        0.10     3.83   0.860
  Swale6                     0.98       9.23       0.03       1.13       0.00       0.00       8.96        0.10     2.95   0.877
  

  ***********************
  LID Performance Summary
  ***********************

  --------------------------------------------------------------------------------------------------------------------
                                         Total      Evap     Infil   Surface    Drain    Initial     Final  Continuity
                                        Inflow      Loss      Loss   Outflow   Outflow   Storage   Storage       Error
  Subcatchment      LID Control             in        in        in        in        in        in        in           %
  --------------------------------------------------------------------------------------------------------------------
  S1                RainBarrels         108.95      0.00      0.00     60.95     23.73      0.00     24.36       -0.08
  S1                InfilTrench          20.08      0.06      2.40      9.30      0.00      0.00      8.32       -0.02
  S4                Planters              7.84      0.10      2.01      0.00      1.13      1.20      5.80       -0.04
  S5                GreenRoof             0.98      0.08      0.00      0.00      0.61      0.30      0.59       -0.03
  S5                PorousPave            0.98      0.04      0.94      0.00      0.00      0.00      0.00       -0.00
  Swale3            Swale                 5.03      0.01      0.64      4.38      0.00      0.00      0.00       -0.01
  Swale4            Swale                 8.80      0.02      1.12      7.57      0.00      0.00      0.09       -0.05
  Swale6            Swale                10.21      0.03      1.13      8.96      0.00      0.00      0.10       -0.04

  Analysis begun on:  Tue Jun 23 20:57:56 2026
  Analysis ended on:  Tue Jun 23 20:57:56 2026
  Total elapsed time: < 1 sec