
  EPA STORM WATER MANAGEMENT MODEL - VERSION 5.2 (Build 5.2.4)
  ------------------------------------------------------------

  
  ERROR 205: invalid keyword CROWN_CUTOFF at line 432 of [OPTION] section:
  CROWN_CUTOFF
  
  ERROR 207: duplicate ID name RainGage at line 443 of [RAINGAGE] section:
  RainGage        	INTENSITY	0:05    	1.0     	TIMESERIES	2-yr            

  
  ERROR 207: duplicate ID name S1 at line 448 of [SUBCATCHMENT] section:
  S1              	RainGage        	Swale4          	4.55    	56.8    	1587    	2       	0       	                

  
  ERROR 207: duplicate ID name S2 at line 449 of [SUBCATCHMENT] section:
  S2              	RainGage        	O1              	4.74    	63.0    	1653    	2       	0       	                

  
  ERROR 207: duplicate ID name S3 at line 450 of [SUBCATCHMENT] section:
  S3              	RainGage        	Swale3          	3.70    	39.5    	1456    	3.1     	0       	                

  
  ERROR 207: duplicate ID name S4 at line 451 of [SUBCATCHMENT] section:
  S4              	RainGage        	Swale4          	6.82    	49.9    	2331    	3.1     	0       	                

  
  ERROR 207: duplicate ID name S5 at line 452 of [SUBCATCHMENT] section:
  S5              	RainGage        	O1              	6.60    	87.7    	1670    	2       	0       	                

  
  ERROR 207: duplicate ID name S6 at line 453 of [SUBCATCHMENT] section:
  S6              	RainGage        	Swale6          	2.58    	0.0     	907     	3.1     	0       	                

  
  ERROR 207: duplicate ID name Swale3 at line 454 of [SUBCATCHMENT] section:
  Swale3          	RainGage        	Swale4          	0.33    	0       	50      	0.5     	0       	                

  
  ERROR 207: duplicate ID name Swale4 at line 455 of [SUBCATCHMENT] section:
  Swale4          	RainGage        	Swale6          	0.50    	0       	50      	0.5     	0       	                

  
  ERROR 207: duplicate ID name Swale6 at line 456 of [SUBCATCHMENT] section:
  Swale6          	RainGage        	O1              	0.41    	0       	50      	0.5     	0       	                

  
  ERROR 207: duplicate ID name O1 at line 532 of [OUTFALL] section:
  O1              	4962      	FREE      	                	NO      	                


  Analysis begun on:  Tue Jun 23 20:57:56 2026
  Analysis ended on:  Tue Jun 23 20:57:56 2026
  Total elapsed time: < 1 sec