
  EPA STORM WATER MANAGEMENT MODEL - VERSION 5.2 (Build 5.2.4)
  ------------------------------------------------------------

  
  ERROR 205: invalid keyword CROWN_CUTOFF at line 205 of [OPTION] section:
  CROWN_CUTOFF
  
  ERROR 207: duplicate ID name 80408 at line 216 of [JUNC] section:
  80408           	130       	13.4      	0         	0         	0         

  
  ERROR 207: duplicate ID name 81009 at line 217 of [JUNC] section:
  81009           	128.2     	8.8       	0         	0         	0         

  
  ERROR 207: duplicate ID name 81309 at line 218 of [JUNC] section:
  81309           	117.5     	12.5      	0         	0         	0         

  
  ERROR 207: duplicate ID name 82309 at line 219 of [JUNC] section:
  82309           	112.3     	42.7      	0         	0         	0         

  
  ERROR 207: duplicate ID name 10309 at line 220 of [JUNC] section:
  10309           	101.6     	9.4       	0         	0         	0         

  
  ERROR 207: duplicate ID name 15009 at line 221 of [JUNC] section:
  15009           	111.5     	13.5      	0         	0         	0         

  
  ERROR 207: duplicate ID name 16009 at line 222 of [JUNC] section:
  16009           	102       	18        	0         	0         	0         

  
  ERROR 207: duplicate ID name 16109 at line 223 of [JUNC] section:
  16109           	102.8     	22.2      	0         	0         	0         

  
  ERROR 207: duplicate ID name 10208 at line 228 of [OUTFALL] section:
  10208           	89.9      	FREE      	                	NO      	                

  
  ERROR 207: duplicate ID name 80608 at line 233 of [STORAGE] section:
  80608           	118.3   	8         	0         	FUNCTIONAL	15        0         0       	100     	0       

  
  ERROR 207: duplicate ID name 8040 at line 238 of [CONDUIT] section:
  8040            	80408           	80608           	1800      	0.015     	0         	9         	0         	0         

  
  ERROR 207: duplicate ID name 8060 at line 239 of [CONDUIT] section:
  8060            	80608           	82309           	2075      	0.015     	0         	2.2       	0         	0         

  
  ERROR 207: duplicate ID name 8100 at line 240 of [CONDUIT] section:
  8100            	81009           	81309           	5100      	0.015     	0         	0         	0         	0         

  
  ERROR 207: duplicate ID name 8130 at line 241 of [CONDUIT] section:
  8130            	81309           	15009           	3500      	0.015     	0         	0         	0         	0         

  
  ERROR 207: duplicate ID name 1030 at line 242 of [CONDUIT] section:
  1030            	10309           	10208           	4500      	0.016     	0         	0         	0         	0         

  
  ERROR 207: duplicate ID name 1570 at line 243 of [CONDUIT] section:
  1570            	15009           	16009           	5000      	0.0154    	0         	0         	0         	0         

  
  ERROR 207: duplicate ID name 1600 at line 244 of [CONDUIT] section:
  1600            	16109           	16009           	500       	0.015     	0         	0         	0         	0         

  
  ERROR 207: duplicate ID name 1630 at line 245 of [CONDUIT] section:
  1630            	16009           	10309           	300       	0.015     	0         	0         	0         	0         

  
  ERROR 207: duplicate ID name 1602 at line 246 of [CONDUIT] section:
  1602            	82309           	16109           	5000      	0.034     	0         	0         	0         	0         


  Analysis begun on:  Tue Jun 23 20:57:55 2026
  Analysis ended on:  Tue Jun 23 20:57:55 2026
  Total elapsed time: < 1 sec