
  EPA STORM WATER MANAGEMENT MODEL - VERSION 5.2 (Build 5.2.4)
  ------------------------------------------------------------

  
  ERROR 205: invalid keyword CROWN_CUTOFF at line 162 of [OPTION] section:
  CROWN_CUTOFF
  
  ERROR 207: duplicate ID name 1 at line 173 of [RAINGAGE] section:
  1               	INTENSITY	1:00    	1.0     	FILE      	"sta310301.dat" 	*         	IN   

  
  ERROR 207: duplicate ID name 1 at line 178 of [SUBCATCHMENT] section:
  1               	1               	2               	5       	100     	500     	0.5     	0       	                

  
  ERROR 207: duplicate ID name 2 at line 207 of [JUNC] section:
  2               	0         	0         	0         	0         	0         


  Analysis begun on:  Tue Jun 23 20:57:56 2026
  Analysis ended on:  Tue Jun 23 20:57:56 2026
  Total elapsed time: < 1 sec