
  EPA STORM WATER MANAGEMENT MODEL - VERSION 5.2 (Build 5.2.4)
  ------------------------------------------------------------

  
  ERROR 205: invalid keyword CROWN_CUTOFF at line 219 of [OPTION] section:
  CROWN_CUTOFF
  
  ERROR 207: duplicate ID name 1 at line 230 of [RAINGAGE] section:
  1               	INTENSITY	0:15    	1.0     	TIMESERIES	Rainfall        

  
  ERROR 207: duplicate ID name 1 at line 235 of [SUBCATCHMENT] section:
  1               	1               	1               	5       	0       	140     	0.5     	0       	                

  
  ERROR 207: duplicate ID name 2 at line 236 of [SUBCATCHMENT] section:
  2               	1               	2               	5       	0       	140     	0.5     	0       	                

  
  ERROR 207: duplicate ID name 3 at line 237 of [SUBCATCHMENT] section:
  3               	1               	3               	5       	0       	140     	0.5     	0       	                

  
  ERROR 207: duplicate ID name 4 at line 238 of [SUBCATCHMENT] section:
  4               	1               	4               	5       	0       	140     	0.5     	0       	                


  Analysis begun on:  Tue Jun 23 20:57:56 2026
  Analysis ended on:  Tue Jun 23 20:57:56 2026
  Total elapsed time: < 1 sec