
  EPA STORM WATER MANAGEMENT MODEL - VERSION 5.2 (Build 5.2.4)
  ------------------------------------------------------------

  WARNING 04: minimum elevation drop used for Conduit 18039
  WARNING 04: minimum elevation drop used for Conduit 18979
  WARNING 04: minimum elevation drop used for Conduit 2775
  WARNING 04: minimum elevation drop used for Conduit 2823
  WARNING 04: minimum elevation drop used for Conduit 2983
  WARNING 04: minimum elevation drop used for Conduit 2991
  WARNING 04: minimum elevation drop used for Conduit 3006
  WARNING 04: minimum elevation drop used for Conduit 3007
  WARNING 04: minimum elevation drop used for Conduit 3010
  WARNING 04: minimum elevation drop used for Conduit 3011
  WARNING 04: minimum elevation drop used for Conduit 3012
  WARNING 04: minimum elevation drop used for Conduit 3125
  WARNING 04: minimum elevation drop used for Conduit 4089
  WARNING 04: minimum elevation drop used for Conduit 4090
  WARNING 04: minimum elevation drop used for Conduit 5995
  WARNING 04: minimum elevation drop used for Conduit 6614
  WARNING 04: minimum elevation drop used for Conduit 6917
  WARNING 04: minimum elevation drop used for Conduit 6970
  WARNING 02: maximum depth increased for Node FORCEMAINJUNCTION
  
  ****************
  Analysis Options
  ****************
  Flow Units ............... GPM
  Process Models:
    Rainfall/Runoff ........ NO
    RDII ................... NO
    Snowmelt ............... NO
    Groundwater ............ NO
    Flow Routing ........... YES
    Ponding Allowed ........ YES
    Water Quality .......... NO
  Flow Routing Method ...... DYNWAVE
  Surcharge Method ......... EXTRAN
  Starting Date ............ 01/01/2013 00:00:00
  Ending Date .............. 01/03/2013 06:00:00
  Antecedent Dry Days ...... 5.0
  Report Time Step ......... 00:05:00
  Routing Time Step ........ 5.00 sec
  Variable Time Step ....... YES
  Maximum Trials ........... 8
  Number of Threads ........ 1
  Head Tolerance ........... 0.001000 ft
  
  
  **************************        Volume        Volume
  Flow Routing Continuity        acre-feet      10^6 gal
  **************************     ---------     ---------
  Dry Weather Inflow .......         8.392         2.735
  Wet Weather Inflow .......         0.000         0.000
  Groundwater Inflow .......         0.000         0.000
  RDII Inflow ..............         0.000         0.000
  External Inflow ..........         0.005         0.002
  External Outflow .........         8.270         2.695
  Flooding Loss ............         0.116         0.038
  Evaporation Loss .........         0.000         0.000
  Exfiltration Loss ........         0.000         0.000
  Initial Stored Volume ....         0.002         0.001
  Final Stored Volume ......         0.091         0.030
  Continuity Error (%) .....        -0.922
  
  
  *************************
  Highest Continuity Errors
  *************************
  Node KEVINWHITAKER_WETWELL (4.11%)
  Node 20294 (4.00%)
  Node 18021 (1.61%)
  Node 18022 (1.56%)
  Node 18112 (1.43%)
  
  
  ***************************
  Time-Step Critical Elements
  ***************************
  None
  
  
  ********************************
  Highest Flow Instability Indexes
  ********************************
  Link VINTAGE_FORCEMAIN (3)
  Link 6010 (2)
  
  
  *********************************
  Most Frequent Nonconverging Nodes
  *********************************
  Node 19406_OUT (3.13%)
  Node 400A-206 (3.13%)
  Node 400A-218 (3.13%)
  Node 400A-222 (3.13%)
  Node 400A-229 (3.13%)
  
  
  *************************
  Routing Time Step Summary
  *************************
  Minimum Time Step           :     5.00 sec
  Average Time Step           :     5.00 sec
  Maximum Time Step           :     5.00 sec
  % of Time in Steady State   :     0.00
  Average Iterations per Step :     2.41
  % of Steps Not Converging   :     3.13
  Time Step Frequencies       :
      5.000 -  0.910 sec      :   100.00 %
      0.910 -  0.166 sec      :     0.00 %
      0.166 -  0.030 sec      :     0.00 %
      0.030 -  0.005 sec      :     0.00 %
      0.005 -  0.001 sec      :     0.00 %
  
  
  ******************
  Node Depth Summary
  ******************
  
  ---------------------------------------------------------------------------------
                                 Average  Maximum  Maximum  Time of Max    Reported
                                   Depth    Depth      HGL   Occurrence   Max Depth
  Node                 Type         Feet     Feet     Feet  days hr:min        Feet
  ---------------------------------------------------------------------------------
  15506                JUNCTION     0.03     0.03   937.37     1  07:01        0.03
  15507                JUNCTION     0.02     0.02   912.90     1  06:56        0.02
  15508                JUNCTION     0.02     0.02   914.39     0  05:35        0.02
  15509                JUNCTION     0.01     0.01   907.20     1  04:28        0.01
  15510                JUNCTION     0.02     0.02   896.30     1  04:35        0.02
  15511                JUNCTION     0.04     0.04   898.05     0  08:33        0.04
  15512                JUNCTION     0.02     0.02   903.59     0  06:25        0.02
  15513                JUNCTION     0.04     0.04   904.37     0  01:52        0.04
  15514                JUNCTION     0.01     0.01   916.61     0  01:24        0.01
  15515                JUNCTION     0.03     0.03   883.37     0  17:50        0.03
  15516                JUNCTION     0.01     0.01   914.80     0  16:12        0.01
  15517                JUNCTION     0.01     0.01   903.51     1  12:48        0.01
  15518                JUNCTION     0.01     0.01   925.53     0  13:44        0.01
  15540                JUNCTION     0.08     0.08   964.04     2  00:54        0.08
  15541                JUNCTION     0.05     0.05   962.42     1  09:27        0.05
  15542                JUNCTION     0.06     0.06   951.04     1  04:14        0.06
  15543                JUNCTION     0.06     0.06   944.55     0  12:31        0.06
  15544                JUNCTION     0.03     0.03   959.15     0  07:38        0.03
  15545                JUNCTION     0.05     0.05   961.32     0  19:14        0.05
  15546                JUNCTION     0.02     0.02   962.52     0  11:38        0.02
  15547                JUNCTION     0.01     0.01   974.47     0  09:04        0.01
  15548                JUNCTION     0.12     0.12   969.52     1  18:20        0.12
  15549                JUNCTION     0.11     0.12   960.43     1  18:20        0.12
  15550                JUNCTION     0.11     0.12   943.60     1  18:21        0.12
  15557                JUNCTION     0.11     0.12  1002.81     1  18:16        0.12
  15558                JUNCTION     0.07     0.07  1022.75     1  18:14        0.07
  15559                JUNCTION     0.01     0.01  1027.52     1  09:25        0.01
  15560                JUNCTION     0.02     0.02  1021.48     0  10:24        0.02
  15561                JUNCTION     0.10     0.13  1027.37     1  18:11        0.13
  15562                JUNCTION     0.09     0.12  1031.49     1  18:09        0.12
  15563                JUNCTION     0.09     0.09  1100.40     0  14:41        0.09
  15564                JUNCTION     0.03     0.03  1096.82     1  23:13        0.03
  15565                JUNCTION     0.02     0.02  1113.36     2  00:29        0.02
  15566                JUNCTION     0.03     0.03  1106.11     1  05:59        0.03
  15574                JUNCTION     0.06     0.06   962.35     1  19:19        0.06
  15575                JUNCTION     0.23     0.23   926.82     1  18:47        0.23
  15576                JUNCTION     0.21     0.21   952.52     1  07:39        0.21
  15577                JUNCTION     0.10     0.10   952.83     0  00:59        0.10
  15578                JUNCTION     0.10     0.10   957.74     1  13:32        0.10
  15579                JUNCTION     0.12     0.12   962.16     1  08:14        0.12
  15580                JUNCTION     0.15     0.15   963.33     2  04:00        0.15
  15581                JUNCTION     0.18     0.19   963.92     0  20:33        0.19
  15582                JUNCTION     0.27     0.28   964.39     0  14:06        0.28
  15583                JUNCTION     0.04     0.04   968.96     1  15:42        0.04
  15584                JUNCTION     0.12     0.12   966.56     2  01:21        0.12
  15585                JUNCTION     0.12     0.12   967.47     1  06:35        0.12
  15586                JUNCTION     0.04     0.04   985.26     0  08:49        0.04
  15587                JUNCTION     0.05     0.05   988.52     0  09:14        0.05
  15588                JUNCTION     0.06     0.06   990.31     0  23:33        0.06
  15589                JUNCTION     0.04     0.04   995.16     0  15:52        0.04
  15590                JUNCTION     0.02     0.02   999.58     2  00:14        0.02
  15591                JUNCTION     0.02     0.02  1001.51     0  03:47        0.02
  15592                JUNCTION     0.02     0.02   991.59     0  16:27        0.02
  15593                JUNCTION     0.02     0.02   982.12     1  10:43        0.02
  15594                JUNCTION     0.03     0.03   961.68     1  20:34        0.03
  15595                JUNCTION     0.03     0.03   950.25     1  07:01        0.03
  15596                JUNCTION     0.03     0.03   929.21     1  22:17        0.03
  15597                JUNCTION     0.03     0.03   922.89     0  23:36        0.03
  15598                JUNCTION     0.03     0.03   906.85     1  10:36        0.03
  15599                JUNCTION     0.05     0.05   882.54     0  07:45        0.05
  15600                JUNCTION     0.13     0.13   872.62     1  18:31        0.13
  15615                JUNCTION     0.03     0.03   892.73     1  02:09        0.03
  15616                JUNCTION     0.02     0.02   926.87     0  23:22        0.02
  15617                JUNCTION     0.01     0.01   967.65     1  21:48        0.01
  15618                JUNCTION     0.01     0.01   959.86     0  06:42        0.01
  15619                JUNCTION     0.02     0.02   944.86     1  12:06        0.02
  15620                JUNCTION     0.02     0.02   925.08     1  11:39        0.02
  15681                JUNCTION     0.03     0.03   979.69     0  16:02        0.03
  15697                JUNCTION     0.04     0.04  1106.87     2  02:43        0.04
  15698                JUNCTION     0.02     0.02  1112.41     1  23:11        0.02
  15699                JUNCTION     0.01     0.01  1125.97     0  19:54        0.01
  15700                JUNCTION     0.01     0.01  1154.32     0  02:28        0.01
  15701                JUNCTION     0.01     0.01  1141.46     2  00:09        0.01
  15790                JUNCTION     0.02     0.02   980.68     1  16:17        0.02
  15791                JUNCTION     0.02     0.02   987.74     1  06:05        0.02
  15792                JUNCTION     0.02     0.02   995.28     0  23:36        0.02
  15793                JUNCTION     0.03     0.03   982.04     2  03:30        0.03
  15794                JUNCTION     0.08     0.08   968.19     1  00:56        0.08
  15795                JUNCTION     0.12     0.12   969.55     0  11:05        0.12
  15796                JUNCTION     0.14     0.14   970.25     1  14:37        0.14
  15797                JUNCTION     0.12     0.12   971.14     0  11:04        0.12
  15798                JUNCTION     0.11     0.11   971.91     0  17:48        0.11
  15799                JUNCTION     0.10     0.10   973.17     1  05:42        0.10
  15799A               JUNCTION     0.10     0.10   972.57     1  22:29        0.10
  15800                JUNCTION     0.08     0.08   973.66     1  18:26        0.08
  15801                JUNCTION     0.09     0.09   974.06     1  09:44        0.09
  15802                JUNCTION     0.10     0.10   974.72     1  12:23        0.10
  15803                JUNCTION     0.08     0.08   975.59     2  04:24        0.08
  15804                JUNCTION     0.05     0.05   976.99     0  04:39        0.05
  15805                JUNCTION     0.05     0.05   977.78     0  09:36        0.05
  15806                JUNCTION     0.04     0.04   978.97     1  12:05        0.04
  15807                JUNCTION     0.04     0.04   980.13     2  01:30        0.04
  15809                JUNCTION     0.02     0.02   990.10     1  16:53        0.02
  15845                JUNCTION     0.02     0.02  1006.48     1  10:53        0.02
  15846                JUNCTION     0.02     0.02  1004.45     1  21:56        0.02
  15847                JUNCTION     0.01     0.01  1025.14     1  01:10        0.01
  15848                JUNCTION     0.03     0.03   982.83     1  23:06        0.03
  15849                JUNCTION     0.02     0.02   971.56     1  09:47        0.02
  15850                JUNCTION     0.02     0.02   963.03     0  21:50        0.02
  15851                JUNCTION     0.02     0.02   990.59     1  20:37        0.02
  15852                JUNCTION     0.02     0.02  1002.52     0  03:14        0.02
  15853                JUNCTION     0.02     0.02  1002.48     0  03:37        0.02
  15854                JUNCTION     0.01     0.01   994.78     1  05:09        0.01
  15855                JUNCTION     0.01     0.01  1010.64     0  06:23        0.01
  15856                JUNCTION     0.07     0.08  1008.94     0  11:19        0.08
  15857                JUNCTION     0.06     0.06  1006.48     1  21:48        0.06
  15858                JUNCTION     0.06     0.06  1001.05     0  19:56        0.06
  15859                JUNCTION     0.01     0.01  1001.90     0  06:14        0.01
  15862                JUNCTION     0.01     0.01  1012.86     0  12:28        0.01
  15885                JUNCTION     0.02     0.02   991.43     1  21:59        0.02
  15886                JUNCTION     0.03     0.03   982.88     1  09:40        0.03
  15887                JUNCTION     0.04     0.04   980.23     1  18:49        0.04
  15888                JUNCTION     0.04     0.04   981.09     0  13:55        0.04
  15889                JUNCTION     0.02     0.02   989.17     0  02:41        0.02
  15890                JUNCTION     0.05     0.05   982.49     0  11:40        0.05
  15891                JUNCTION     0.06     0.06   982.84     1  05:47        0.06
  15892                JUNCTION     0.02     0.02   991.27     2  05:10        0.02
  15893                JUNCTION     0.02     0.02   995.73     2  01:29        0.02
  15894                JUNCTION     0.02     0.02  1000.92     0  14:58        0.02
  15895                JUNCTION     0.03     0.03  1001.85     1  07:00        0.03
  15896                JUNCTION     0.02     0.02   991.31     0  17:49        0.02
  15897                JUNCTION     0.00     0.00   987.12     0  00:00        0.00
  15898                JUNCTION     0.04     0.04  1002.53     0  11:17        0.04
  15900                JUNCTION     0.02     0.02   998.39     0  18:43        0.02
  15901                JUNCTION     0.03     0.03   996.73     0  14:58        0.03
  15902                JUNCTION     0.02     0.02   994.94     0  23:36        0.02
  15903                JUNCTION     0.02     0.02   989.49     0  11:06        0.02
  15904                JUNCTION     0.02     0.02  1003.70     0  03:35        0.02
  16050                JUNCTION     0.02     0.02   972.00     1  05:46        0.02
  16051                JUNCTION     0.02     0.02   970.51     1  21:48        0.02
  16052                JUNCTION     0.00     0.00   984.88     0  00:00        0.00
  16053                JUNCTION     0.01     0.01   994.82     1  17:02        0.01
  16054                JUNCTION     0.02     0.02   981.71     2  02:42        0.02
  16055                JUNCTION     0.02     0.02   967.47     0  14:01        0.02
  16056                JUNCTION     0.04     0.04   943.72     1  08:13        0.04
  16057                JUNCTION     0.02     0.02   978.28     0  18:03        0.02
  16058                JUNCTION     0.02     0.02   962.66     1  21:08        0.02
  16059                JUNCTION     0.04     0.04   946.23     1  04:22        0.04
  16060                JUNCTION     0.04     0.04   942.56     0  05:48        0.04
  16061                JUNCTION     0.03     0.03   925.32     1  19:21        0.03
  16062                JUNCTION     0.43     0.60   900.86     0  00:00        0.45
  16063                JUNCTION     0.03     0.03   935.49     0  06:19        0.03
  16064                JUNCTION     0.03     0.03   950.92     0  22:42        0.03
  16065                JUNCTION     0.01     0.01   981.48     0  02:13        0.01
  16066                JUNCTION     0.02     0.02   966.19     0  04:46        0.02
  16067                JUNCTION     0.02     0.02   954.40     2  01:04        0.02
  16068                JUNCTION     0.02     0.02   932.89     0  15:30        0.02
  16069                JUNCTION     0.25     0.26   903.99     1  18:37        0.26
  16070                JUNCTION     0.02     0.02   943.00     0  18:31        0.02
  16071                JUNCTION     0.02     0.02   953.72     0  19:26        0.02
  16072                JUNCTION     0.03     0.03   956.35     1  06:20        0.03
  16073                JUNCTION     0.02     0.02   958.95     2  02:40        0.02
  16074                JUNCTION     0.01     0.01   966.04     1  22:59        0.01
  16075                JUNCTION     0.01     0.01   986.04     0  01:22        0.01
  16076                JUNCTION     0.03     0.03   978.13     1  14:32        0.03
  16077                JUNCTION     0.03     0.03   961.78     2  01:59        0.03
  16078                JUNCTION     0.02     0.02   963.13     0  02:31        0.02
  16079                JUNCTION     0.01     0.01   963.25     1  18:17        0.01
  16080                JUNCTION     0.02     0.02   946.02     0  18:30        0.02
  16081                JUNCTION     0.02     0.02   935.99     0  04:37        0.02
  16082                JUNCTION     0.04     0.04   950.20     1  19:14        0.04
  16083                JUNCTION     0.03     0.03   946.13     1  09:29        0.03
  16084                JUNCTION     0.03     0.03   934.33     1  12:20        0.03
  16085                JUNCTION     0.04     0.04   927.59     1  13:20        0.04
  16086                JUNCTION     0.02     0.02   941.64     1  06:47        0.02
  16087                JUNCTION     0.01     0.01   954.21     1  14:27        0.01
  16088                JUNCTION     0.03     0.03   954.56     0  18:30        0.03
  16089                JUNCTION     0.02     0.02   964.35     1  03:05        0.02
  16090                JUNCTION     0.02     0.02   970.68     1  05:47        0.02
  16091                JUNCTION     0.02     0.02   976.77     0  12:31        0.02
  16092                JUNCTION     0.03     0.03   987.96     0  09:10        0.03
  16093                JUNCTION     0.02     0.02   994.57     1  12:48        0.02
  16094                JUNCTION     0.01     0.01  1013.61     0  15:02        0.01
  16095                JUNCTION     0.01     0.01  1014.89     0  03:06        0.01
  16096                JUNCTION     0.02     0.02   992.05     0  15:21        0.02
  16097                JUNCTION     0.01     0.01   976.55     0  15:43        0.01
  16098                JUNCTION     0.01     0.01   975.40     1  23:55        0.01
  16099                JUNCTION     0.01     0.01   950.38     1  04:14        0.01
  16100                JUNCTION     0.05     0.05   952.08     0  14:26        0.05
  16101                JUNCTION     0.04     0.04   953.49     1  18:37        0.04
  16102                JUNCTION     0.03     0.03   954.60     0  05:11        0.03
  16103                JUNCTION     0.00     0.00   960.45     0  00:00        0.00
  16104                JUNCTION     0.02     0.02   952.73     0  03:28        0.02
  16105                JUNCTION     0.01     0.01   966.91     1  10:44        0.01
  17168                JUNCTION     0.02     0.02   970.79     0  03:32        0.02
  17169                JUNCTION     0.03     0.03   967.65     0  19:26        0.03
  17170                JUNCTION     0.05     0.05   969.14     0  03:23        0.05
  17171                JUNCTION     0.03     0.03   974.88     1  07:04        0.03
  17172                JUNCTION     0.03     0.03   982.90     0  20:59        0.03
  17173                JUNCTION     0.02     0.02   986.98     0  07:04        0.02
  17174                JUNCTION     0.01     0.01   994.44     0  01:13        0.01
  17224                JUNCTION     0.01     0.01  1006.50     0  00:57        0.01
  17225                JUNCTION     0.02     0.02  1007.70     0  00:38        0.02
  17226                JUNCTION     0.11     0.11  1003.83     0  02:55        0.11
  17227                JUNCTION     0.09     0.09  1002.12     0  02:56        0.09
  17228                JUNCTION     0.13     0.13  1001.78     0  02:58        0.13
  17229                JUNCTION     0.14     0.14  1001.22     0  02:58        0.14
  17230                JUNCTION     0.06     0.06   999.92     0  03:02        0.06
  17232                JUNCTION     0.01     0.01   975.44     0  10:24        0.01
  17233                JUNCTION     0.03     0.03   964.29     0  10:52        0.03
  17234                JUNCTION     0.06     0.06  1013.20     2  04:36        0.06
  17290                JUNCTION     0.01     0.01   998.56     0  01:42        0.01
  17291                JUNCTION     0.02     0.02   985.68     0  02:48        0.02
  17292                JUNCTION     0.03     0.03   979.96     1  16:54        0.03
  17293                JUNCTION     0.03     0.03   975.42     1  06:11        0.03
  17294                JUNCTION     0.04     0.04   969.64     1  04:28        0.04
  17295                JUNCTION     0.08     0.08   965.83     0  18:39        0.08
  17296                JUNCTION     0.04     0.04   969.62     0  02:52        0.04
  17297                JUNCTION     0.03     0.03   973.11     0  16:48        0.03
  17298                JUNCTION     0.02     0.02   980.83     0  12:43        0.02
  17299                JUNCTION     0.01     0.01   987.73     0  02:54        0.01
  17300                JUNCTION     0.02     0.02  1012.83     0  01:54        0.02
  17302                JUNCTION     0.07     0.07  1008.79     0  02:31        0.07
  17303                JUNCTION     0.06     0.06  1007.57     0  02:39        0.06
  17304                JUNCTION     0.05     0.05  1006.62     0  02:40        0.05
  17676                JUNCTION     0.01     0.01   992.08     0  01:17        0.01
  17677                JUNCTION     0.02     0.02   981.97     1  21:46        0.02
  17678                JUNCTION     0.03     0.03   977.55     0  02:16        0.03
  17679                JUNCTION     0.05     0.05   973.75     1  22:27        0.05
  17680                JUNCTION     0.06     0.06   978.69     0  19:47        0.06
  17690                JUNCTION     0.06     0.06   982.58     2  03:31        0.06
  17691                JUNCTION     0.01     0.01   997.58     0  09:03        0.01
  17788                JUNCTION     0.01     0.01   996.97     0  01:01        0.01
  17888                JUNCTION     0.05     0.05   990.77     2  05:02        0.05
  17889                JUNCTION     0.04     0.04   992.80     1  22:07        0.04
  17890                JUNCTION     0.03     0.03   994.16     2  02:45        0.03
  17891                JUNCTION     0.02     0.02   995.04     0  01:05        0.02
  18011                JUNCTION     0.09     0.15   975.74     1  13:47        0.15
  18012                JUNCTION     0.07     0.12   975.42     1  13:48        0.12
  18013                JUNCTION     0.10     0.10   971.23     1  10:41        0.10
  18014                JUNCTION     0.09     0.10   971.38     1  09:17        0.10
  18015                JUNCTION     0.08     0.08   972.64     1  16:32        0.08
  18016                JUNCTION     0.08     0.08   973.57     1  18:05        0.08
  18018                JUNCTION     0.04     0.04   982.58     2  02:00        0.04
  18020                JUNCTION     0.03     0.03   990.76     1  09:06        0.03
  18021                JUNCTION     0.07     0.07   990.80     1  18:20        0.07
  18022                JUNCTION     0.08     0.08   990.80     1  21:11        0.08
  18023                JUNCTION     0.08     0.08   990.81     1  23:45        0.08
  18101                JUNCTION     0.00     0.00   984.38     0  00:00        0.00
  18102                JUNCTION     0.03     0.03   977.94     0  10:02        0.03
  18103                JUNCTION     0.06     0.06   972.23     0  11:56        0.06
  18104                JUNCTION     0.10     0.10   970.98     1  23:01        0.10
  18105                JUNCTION     0.09     0.09   970.32     0  06:59        0.09
  18106                JUNCTION     0.03     0.03   977.34     2  03:57        0.03
  18107                JUNCTION     0.04     0.04   980.46     0  07:28        0.04
  18108                JUNCTION     0.07     0.12   976.14     1  13:47        0.12
  18109                JUNCTION     0.07     0.12   977.42     1  13:46        0.12
  18110                JUNCTION     0.07     0.12   978.50     1  06:22        0.12
  18111                JUNCTION     0.06     0.11   978.61     0  23:45        0.11
  18112                JUNCTION     0.62     1.00   968.00     1  18:14        1.00
  18113                JUNCTION     0.05     0.06   968.79     0  03:11        0.06
  18115                JUNCTION     0.04     0.04   974.64     0  05:00        0.04
  18116                JUNCTION     0.02     0.02   983.29     0  18:44        0.02
  18117                JUNCTION     0.02     0.02   994.54     0  03:00        0.02
  18273                JUNCTION     0.06     0.06   969.64     0  23:14        0.06
  18274                JUNCTION     0.02     0.02   987.10     0  00:34        0.02
  18275                JUNCTION     0.02     0.02   991.21     0  00:22        0.02
  18276                JUNCTION     0.03     0.03   993.48     0  22:55        0.03
  18277                JUNCTION     0.06     0.06   989.25     1  17:49        0.06
  18278                JUNCTION     0.02     0.02   999.92     0  13:52        0.02
  18279                JUNCTION     0.07     0.07   987.42     2  01:21        0.07
  18280                JUNCTION     0.07     0.07   985.58     1  21:48        0.07
  18281                JUNCTION     0.07     0.07   984.19     1  20:04        0.07
  18282                JUNCTION     0.03     0.03   985.14     1  00:37        0.03
  18283                JUNCTION     0.03     0.03   988.66     1  03:09        0.03
  18284                JUNCTION     0.03     0.03   990.87     0  20:37        0.03
  18285                JUNCTION     0.02     0.02   993.73     1  04:31        0.02
  18286                JUNCTION     0.02     0.02   995.69     1  14:40        0.02
  18290                JUNCTION     0.04     0.04   977.33     0  20:38        0.04
  18511                JUNCTION     0.01     0.01   981.02     0  12:42        0.01
  18512                JUNCTION     0.02     0.02   956.68     0  06:16        0.02
  18513                JUNCTION     0.06     0.06  1010.19     0  01:58        0.06
  18514                JUNCTION     0.04     0.04  1014.86     0  01:02        0.04
  18515                JUNCTION     0.03     0.03  1031.25     0  00:52        0.03
  18516                JUNCTION     0.03     0.03  1038.48     0  00:46        0.03
  18518                JUNCTION     0.03     0.03  1047.31     0  09:15        0.03
  18519                JUNCTION     0.10     0.10  1085.41     0  17:46        0.10
  18705                JUNCTION     0.12     0.12   951.91     0  21:39        0.12
  18706                JUNCTION     0.18     0.18   942.50     1  11:45        0.18
  18707                JUNCTION     0.15     0.15   944.80     0  10:48        0.15
  18708                JUNCTION     0.19     0.19   945.73     1  00:47        0.19
  18709                JUNCTION     0.04     0.04   946.37     0  06:14        0.04
  18710                JUNCTION     0.02     0.02   953.64     1  14:22        0.02
  18711                JUNCTION     0.02     0.02   962.62     2  02:14        0.02
  18712                JUNCTION     0.01     0.01   973.51     0  06:56        0.01
  18713                JUNCTION     0.01     0.01   981.59     0  16:56        0.01
  18714                JUNCTION     0.01     0.01   996.25     0  01:55        0.01
  18715                JUNCTION     0.00     0.00  1008.41     0  00:00        0.00
  18716                JUNCTION     0.01     0.01   994.90     0  18:44        0.01
  18717                JUNCTION     0.01     0.01   981.59     0  02:11        0.01
  18718                JUNCTION     0.01     0.01   978.02     1  04:56        0.01
  18719                JUNCTION     0.01     0.01   972.85     0  11:16        0.01
  18720                JUNCTION     0.10     0.10   961.48     0  06:48        0.10
  18721                JUNCTION     0.11     0.11   952.92     0  08:14        0.11
  18722                JUNCTION     0.12     0.12   943.41     0  08:15        0.12
  18723                JUNCTION     0.26     0.26   942.71     1  20:34        0.26
  18724                JUNCTION     0.26     0.26   941.01     2  05:48        0.26
  18998                JUNCTION     0.06     0.06   975.16     1  21:03        0.06
  18999                JUNCTION     0.05     0.05   980.39     2  01:42        0.05
  19010                JUNCTION     0.00     0.00   972.58     0  00:00        0.00
  19011                JUNCTION     0.01     0.01   972.37     0  23:36        0.01
  19012                JUNCTION     0.02     0.02   984.49     0  20:55        0.02
  19013                JUNCTION     0.01     0.01   990.41     1  07:13        0.01
  19014                JUNCTION     0.05     0.05   970.15     0  06:30        0.05
  19017                JUNCTION     0.04     0.04   970.80     1  05:43        0.04
  19206                JUNCTION     0.01     0.01   901.77     1  18:21        0.01
  19207                JUNCTION     0.01     0.01   919.66     0  00:34        0.01
  19209                JUNCTION     0.02     0.02   938.86     0  08:05        0.02
  19211                JUNCTION     0.01     0.01   968.20     0  02:08        0.01
  19212                JUNCTION     0.03     0.03   954.28     0  06:57        0.03
  19213                JUNCTION     0.03     0.03   906.95     0  20:35        0.03
  19214                JUNCTION     0.22     0.22   905.53     1  18:35        0.22
  19215                JUNCTION     0.02     0.02   980.20     1  12:11        0.02
  19216                JUNCTION     0.02     0.02   981.57     1  12:06        0.02
  19217                JUNCTION     0.02     0.02   961.58     1  07:56        0.02
  19241                JUNCTION     0.02     0.02   955.56     0  23:08        0.02
  19242                JUNCTION     0.03     0.03   985.55     0  07:34        0.03
  19243                JUNCTION     0.11     0.12   950.46     1  18:21        0.12
  19270                JUNCTION     0.03     0.03   983.89     0  07:28        0.03
  19273                JUNCTION     0.12     0.12  1001.06     0  03:01        0.12
  19335                JUNCTION     0.09     0.09  1009.07     0  02:12        0.09
  19344                JUNCTION     0.08     0.08  1054.55     0  04:57        0.08
  19345                JUNCTION     0.10     0.10  1044.96     0  12:07        0.10
  19346                JUNCTION     0.10     0.10  1039.98     0  11:17        0.10
  19347                JUNCTION     0.08     0.08  1073.18     1  20:06        0.08
  19348                JUNCTION     0.10     0.10  1079.63     0  08:15        0.10
  19349                JUNCTION     0.01     0.01  1085.08     0  00:22        0.01
  19350                JUNCTION     0.08     0.08  1092.64     0  20:49        0.08
  19375                JUNCTION     0.09     0.09   989.94     1  18:17        0.09
  19376                JUNCTION     0.08     0.08   986.33     1  18:17        0.08
  19377                JUNCTION     0.03     0.03  1010.75     2  01:44        0.03
  19378                JUNCTION     0.06     0.06  1010.78     1  08:10        0.06
  19379                JUNCTION     0.14     0.15   936.55     1  18:22        0.15
  19380                JUNCTION     0.04     0.04   924.68     0  03:33        0.04
  19381                JUNCTION     0.03     0.03   922.43     0  14:07        0.03
  19382                JUNCTION     0.22     0.23   912.04     1  18:31        0.23
  19383                JUNCTION     0.02     0.02   955.29     0  11:16        0.02
  19384                JUNCTION     0.02     0.02   964.81     0  02:53        0.02
  19385                JUNCTION     0.01     0.01   977.22     0  15:02        0.01
  19386                JUNCTION     0.01     0.01   985.22     0  11:17        0.01
  19387                JUNCTION     0.01     0.01   953.53     1  06:59        0.01
  19388                JUNCTION     0.04     0.04   960.72     1  11:03        0.04
  19388A               JUNCTION     0.01     0.01   961.13     0  00:37        0.01
  19389                JUNCTION     0.05     0.05   961.42     0  17:45        0.05
  19389A               JUNCTION     0.04     0.04   962.16     1  21:42        0.04
  19389B               JUNCTION     0.02     0.02   963.60     1  15:58        0.02
  19390                JUNCTION     0.02     0.02   979.23     1  19:16        0.02
  19391                JUNCTION     0.02     0.02   985.74     1  08:10        0.02
  19392                JUNCTION     0.02     0.02   992.31     0  10:59        0.02
  19393                JUNCTION     0.02     0.02   997.26     1  21:10        0.02
  19394                JUNCTION     0.06     0.06   997.30     0  18:59        0.06
  19395                JUNCTION     0.01     0.01   966.83     0  00:29        0.01
  19396                JUNCTION     0.02     0.02   970.88     1  11:38        0.02
  19397                JUNCTION     0.01     0.01   989.62     0  18:23        0.01
  19398                JUNCTION     0.09     0.09   958.41     1  09:37        0.09
  19399                JUNCTION     0.02     0.02   954.53     1  21:08        0.02
  19403                JUNCTION     0.02     0.02   958.34     2  03:09        0.02
  19404                JUNCTION     0.01     0.01   960.14     0  00:06        0.01
  19405                JUNCTION     0.00     0.00   924.13     0  00:00        0.00
  19407                JUNCTION     0.02     0.02   926.51     2  01:31        0.02
  19408                JUNCTION     0.02     0.02   933.18     0  05:46        0.02
  19409                JUNCTION     0.02     0.02   948.45     1  00:44        0.02
  19410                JUNCTION     0.02     0.02   965.26     2  01:26        0.02
  19411                JUNCTION     0.02     0.02   983.79     0  06:40        0.02
  19412                JUNCTION     0.02     0.02  1001.62     0  04:37        0.02
  19413                JUNCTION     0.02     0.02  1015.76     2  05:31        0.02
  19414                JUNCTION     0.03     0.03  1019.99     0  00:56        0.03
  19415                JUNCTION     0.00     0.00   927.08     0  00:00        0.00
  19416                JUNCTION     0.07     0.07   886.60     2  03:23        0.07
  19417                JUNCTION     0.08     0.08   881.46     0  13:24        0.08
  19423                JUNCTION     0.18     0.18   923.66     1  18:24        0.18
  19424                JUNCTION     0.06     0.06   912.53     0  13:26        0.06
  19425                JUNCTION     0.05     0.05   918.40     1  06:47        0.05
  19426                JUNCTION     0.23     0.23   907.87     1  18:33        0.23
  19523                JUNCTION     0.03     0.03  1050.20     1  08:38        0.03
  19666                JUNCTION     0.08     0.08   961.02     0  17:51        0.08
  19667                JUNCTION     0.06     0.06   967.64     0  21:50        0.06
  19668                JUNCTION     0.05     0.05   991.02     0  13:39        0.05
  19669                JUNCTION     0.01     0.01  1016.16     0  10:03        0.01
  19670                JUNCTION     0.02     0.02   976.36     1  18:06        0.02
  19671                JUNCTION     0.02     0.02   981.86     0  16:12        0.02
  19672                JUNCTION     0.01     0.01   985.62     0  02:01        0.01
  19673                JUNCTION     0.01     0.01   975.73     1  10:57        0.01
  19674                JUNCTION     0.10     0.10  1104.53     1  00:51        0.10
  19675                JUNCTION     0.10     0.10  1035.11     1  06:50        0.10
  19676                JUNCTION     0.02     0.02  1051.94     0  03:41        0.02
  19677                JUNCTION     0.01     0.01  1066.84     0  10:10        0.01
  19678                JUNCTION     0.01     0.01  1081.45     1  11:52        0.01
  19679                JUNCTION     0.01     0.01  1092.53     0  12:28        0.01
  19680                JUNCTION     0.08     0.08  1048.08     0  16:55        0.08
  19681                JUNCTION     0.01     0.01  1034.33     1  23:11        0.01
  19682                JUNCTION     0.01     0.01  1037.57     0  01:22        0.01
  19683                JUNCTION     0.01     0.01   991.85     2  02:00        0.01
  19684                JUNCTION     0.01     0.01  1006.25     1  08:24        0.01
  19685                JUNCTION     0.04     0.04  1012.74     0  04:08        0.04
  19686                JUNCTION     0.13     0.13   934.44     2  02:07        0.13
  19687                JUNCTION     0.09     0.09   943.77     1  10:32        0.09
  19688                JUNCTION     0.11     0.11   945.93     0  21:50        0.11
  19689                JUNCTION     0.08     0.08   949.41     1  04:12        0.08
  19690                JUNCTION     0.03     0.03   954.64     0  10:59        0.03
  19691                JUNCTION     0.02     0.02   959.53     2  04:12        0.02
  19692                JUNCTION     0.15     0.15   963.45     1  00:27        0.15
  19693                JUNCTION     0.12     0.12   971.64     0  14:27        0.12
  19694                JUNCTION     0.03     0.03   986.83     0  12:57        0.03
  19695                JUNCTION     0.02     0.02   982.32     1  01:27        0.02
  19696                JUNCTION     0.15     0.15   974.51     1  21:05        0.15
  19697                JUNCTION     0.01     0.01  1027.60     0  16:41        0.01
  19698                JUNCTION     0.03     0.03  1013.10     1  19:17        0.03
  19699                JUNCTION     0.05     0.05  1009.82     1  04:07        0.05
  19700                JUNCTION     0.03     0.03  1005.97     1  20:20        0.03
  19701                JUNCTION     0.02     0.03  1005.13     2  01:58        0.03
  19702                JUNCTION     0.02     0.02  1011.27     0  16:53        0.02
  19703                JUNCTION     0.02     0.02  1012.60     0  08:57        0.02
  19704                JUNCTION     0.02     0.02  1029.29     1  10:42        0.02
  19705                JUNCTION     0.01     0.01  1049.22     2  00:09        0.01
  19706                JUNCTION     0.01     0.01  1052.62     0  13:47        0.01
  19707                JUNCTION     0.15     0.15   978.54     0  23:32        0.15
  19708                JUNCTION     0.02     0.02   997.89     2  01:43        0.02
  19709                JUNCTION     0.01     0.01  1026.66     1  14:37        0.01
  19710                JUNCTION     0.01     0.01  1050.81     1  05:23        0.01
  19711                JUNCTION     0.14     0.14   981.12     1  23:46        0.14
  19712                JUNCTION     0.13     0.13   994.29     0  17:56        0.13
  19713                JUNCTION     0.13     0.13  1000.65     1  14:20        0.13
  19714                JUNCTION     0.01     0.01  1048.36     0  22:21        0.01
  19715                JUNCTION     0.01     0.01  1036.42     0  19:54        0.01
  19716                JUNCTION     0.02     0.02  1024.09     1  02:08        0.02
  19716A               JUNCTION     0.02     0.02  1024.99     0  08:48        0.02
  19717                JUNCTION     0.03     0.03  1021.69     0  10:38        0.03
  19718                JUNCTION     0.02     0.02  1028.05     0  12:31        0.02
  19719                JUNCTION     0.06     0.06  1028.09     1  16:53        0.06
  19721                JUNCTION     0.03     0.03  1026.46     0  00:30        0.03
  19722                JUNCTION     0.04     0.04  1021.72     1  14:39        0.04
  19723                JUNCTION     0.01     0.01  1042.27     0  07:37        0.01
  19724                JUNCTION     0.02     0.02  1042.93     0  10:00        0.02
  19725                JUNCTION     0.01     0.01  1050.24     0  00:42        0.01
  19726                JUNCTION     0.01     0.01  1036.37     0  19:54        0.01
  19727                JUNCTION     0.07     0.07  1036.25     0  20:57        0.07
  19728                JUNCTION     0.10     0.10  1019.41     1  15:12        0.10
  19729                JUNCTION     0.02     0.02  1024.19     1  10:29        0.02
  19730                JUNCTION     0.01     0.01  1025.25     0  07:48        0.01
  19731                JUNCTION     0.02     0.02  1041.55     1  11:55        0.02
  19732                JUNCTION     0.01     0.01  1061.26     0  01:06        0.01
  19733                JUNCTION     0.01     0.01  1063.73     0  04:09        0.01
  19734                JUNCTION     0.08     0.08  1083.05     1  01:48        0.08
  19735                JUNCTION     0.14     0.14  1086.50     2  04:08        0.14
  19736                JUNCTION     0.05     0.05  1087.31     1  18:43        0.05
  19737                JUNCTION     0.03     0.03  1101.37     1  02:51        0.03
  19738                JUNCTION     0.04     0.04  1104.91     1  03:20        0.04
  19877                JUNCTION     0.08     0.08   879.67     1  06:14        0.08
  19878                JUNCTION     0.08     0.08   877.67     1  23:55        0.08
  19879                JUNCTION     0.02     0.02   907.21     0  07:24        0.02
  19880                JUNCTION     0.09     0.09   887.35     0  17:51        0.09
  19881                JUNCTION     0.06     0.06   890.08     0  15:31        0.06
  19882                JUNCTION     0.06     0.06   891.71     1  22:38        0.06
  19883                JUNCTION     0.06     0.06   920.06     0  22:46        0.06
  19884                JUNCTION     0.04     0.04   930.04     0  06:04        0.04
  19885                JUNCTION     0.03     0.03   947.87     1  12:37        0.03
  19886                JUNCTION     0.04     0.04   971.01     0  19:58        0.04
  19887                JUNCTION     0.02     0.02   977.11     0  07:51        0.02
  19888                JUNCTION     0.04     0.04   989.65     0  10:06        0.04
  19889                JUNCTION     0.23     0.24   906.70     1  18:34        0.24
  19890                JUNCTION     0.02     0.02   920.48     1  05:36        0.02
  19891                JUNCTION     0.02     0.02   939.98     0  13:53        0.02
  19892                JUNCTION     0.04     0.04   914.51     1  06:23        0.04
  19893                JUNCTION     0.05     0.05   912.38     1  04:52        0.05
  19894                JUNCTION     0.17     0.18   910.95     1  18:32        0.18
  19895                JUNCTION     0.02     0.02   943.41     1  07:43        0.02
  19896                JUNCTION     0.03     0.03   942.09     1  13:12        0.03
  19897                JUNCTION     0.19     0.19   914.93     1  18:30        0.19
  19898                JUNCTION     0.34     0.35   915.39     1  18:28        0.35
  19899                JUNCTION     0.18     0.18   918.60     1  18:27        0.18
  19900                JUNCTION     0.19     0.20   919.88     1  18:26        0.20
  19901                JUNCTION     0.02     0.02   926.14     0  11:23        0.02
  19902                JUNCTION     0.02     0.02   931.37     1  19:26        0.02
  19903                JUNCTION     0.09     0.09   958.41     2  02:52        0.09
  19904                JUNCTION     0.09     0.09   958.41     0  16:25        0.09
  19905                JUNCTION     0.02     0.02   959.19     2  05:56        0.02
  19906                JUNCTION     0.02     0.02   935.85     0  16:16        0.02
  19907                JUNCTION     0.00     0.00   930.36     0  00:00        0.00
  19908                JUNCTION     0.00     0.00   930.36     0  00:00        0.00
  19909                JUNCTION     0.00     0.00   930.36     0  00:00        0.00
  19910                JUNCTION     0.03     0.03   957.23     1  12:21        0.03
  19911                JUNCTION     0.01     0.01  1011.23     1  02:12        0.01
  19912                JUNCTION     0.01     0.01   998.01     0  01:20        0.01
  19915                JUNCTION     0.03     0.03  1005.20     1  05:32        0.03
  19916                JUNCTION     0.01     0.01   985.98     0  00:58        0.01
  19917                JUNCTION     0.02     0.02  1034.25     2  00:18        0.02
  19918                JUNCTION     0.02     0.02  1011.54     0  01:14        0.02
  19919                JUNCTION     0.15     0.15   976.44     0  04:58        0.15
  19920                JUNCTION     0.10     0.10  1016.05     1  04:56        0.10
  19921                JUNCTION     0.02     0.02  1031.19     1  05:32        0.02
  19922                JUNCTION     0.02     0.02  1066.53     0  00:27        0.02
  19923                JUNCTION     0.02     0.02  1040.90     0  00:28        0.02
  19924                JUNCTION     0.02     0.02  1036.29     0  00:29        0.02
  19925                JUNCTION     0.04     0.05  1033.92     1  02:53        0.05
  19926                JUNCTION     0.01     0.01  1054.52     0  01:32        0.01
  19927                JUNCTION     0.08     0.08   955.03     1  02:03        0.08
  19928                JUNCTION     0.08     0.08   958.37     2  02:19        0.08
  20159                JUNCTION     0.02     0.02  1006.44     0  02:30        0.02
  20215                JUNCTION     0.11     0.11  1014.83     0  20:19        0.11
  20216                JUNCTION     0.08     0.08  1017.49     1  14:50        0.08
  20217                JUNCTION     0.07     0.07  1022.69     1  16:24        0.07
  20218                JUNCTION     0.08     0.08  1019.41     0  03:41        0.08
  20219                JUNCTION     0.05     0.05  1058.14     0  12:30        0.05
  20220                JUNCTION     0.05     0.05  1061.74     2  00:15        0.05
  20221                JUNCTION     0.05     0.05  1025.58     0  06:11        0.05
  20222                JUNCTION     0.01     0.01  1039.17     0  17:21        0.01
  20223                JUNCTION     0.02     0.02  1031.90     1  17:28        0.02
  20224                JUNCTION     0.02     0.02  1024.76     1  23:18        0.02
  20225                JUNCTION     0.06     0.06  1024.79     1  10:41        0.06
  20226                JUNCTION     0.02     0.02  1019.34     1  12:12        0.02
  20227                JUNCTION     0.03     0.03  1077.26     1  02:37        0.03
  20228                JUNCTION     0.03     0.03  1076.48     0  17:09        0.03
  20229                JUNCTION     0.02     0.02  1075.33     1  07:00        0.02
  20230                JUNCTION     0.02     0.02  1067.63     0  07:34        0.02
  20231                JUNCTION     0.07     0.07  1067.73     0  02:56        0.07
  20232                JUNCTION     0.01     0.01  1081.25     0  21:32        0.01
  20233                JUNCTION     0.01     0.01  1085.92     0  14:20        0.01
  20235                JUNCTION     0.01     0.01  1077.81     0  18:44        0.01
  20236                JUNCTION     0.04     0.04  1056.00     1  16:22        0.04
  20237                JUNCTION     0.04     0.04  1057.27     1  23:05        0.04
  20238                JUNCTION     0.04     0.04  1058.50     0  01:00        0.04
  20239                JUNCTION     0.08     0.15  1038.20     2  05:42        0.15
  20290                JUNCTION     0.04     0.04  1086.26     1  03:46        0.04
  20291                JUNCTION     0.05     0.05  1094.36     1  00:46        0.05
  20292                JUNCTION     0.01     0.01  1104.68     0  18:42        0.01
  20293                JUNCTION     3.06     3.31  1117.82     0  16:13        3.31
  20294                JUNCTION    10.93    11.18  1125.69     0  04:22       11.18
  20295                JUNCTION     0.02     0.02  1145.69     0  23:22        0.02
  20296                JUNCTION     0.02     0.02  1152.30     1  08:49        0.02
  20297                JUNCTION     0.03     0.03  1153.93     1  23:13        0.03
  20298                JUNCTION     0.02     0.02  1163.15     1  14:23        0.02
  20299                JUNCTION     0.04     0.04  1129.40     0  05:48        0.04
  20300                JUNCTION     0.03     0.03  1135.04     1  06:59        0.03
  20301                JUNCTION     0.02     0.02  1146.26     0  02:46        0.02
  20302                JUNCTION     0.02     0.02  1162.15     1  06:19        0.02
  20303                JUNCTION     0.02     0.02  1167.76     1  17:40        0.02
  20304                JUNCTION     0.02     0.02  1171.21     0  18:03        0.02
  20305                JUNCTION     0.02     0.02  1173.59     0  05:07        0.02
  20306                JUNCTION     0.01     0.01  1168.15     1  02:04        0.01
  20307                JUNCTION     0.05     0.06  1048.42     1  13:02        0.06
  20311                JUNCTION     0.03     0.04  1111.11     1  10:41        0.04
  20383                JUNCTION     0.05     0.05  1018.83     1  14:59        0.05
  20384                JUNCTION     0.06     0.06  1024.37     1  16:37        0.06
  20385                JUNCTION     0.04     0.04   963.69     0  23:19        0.04
  20386                JUNCTION     0.02     0.02   982.18     0  10:51        0.02
  20446                JUNCTION     0.28     0.33   948.14     0  00:01        0.29
  20447                JUNCTION     0.02     0.02   969.93     0  14:59        0.02
  20448                JUNCTION     0.09     0.09  1049.22     0  11:49        0.09
  20449                JUNCTION     0.07     0.08  1050.31     0  11:10        0.08
  20450                JUNCTION     0.04     0.04  1067.17     1  05:24        0.04
  20539                JUNCTION     0.04     0.04   920.56     0  09:54        0.04
  20540                JUNCTION     0.02     0.02   920.96     0  00:41        0.02
  20541                JUNCTION     0.02     0.03   921.51     0  00:22        0.03
  20574                JUNCTION     0.09     0.10  1000.31     1  18:17        0.10
  20576                JUNCTION     0.03     0.03  1051.73     0  00:36        0.03
  20577                JUNCTION     0.06     0.06  1051.17     0  03:43        0.06
  20578                JUNCTION     0.06     0.06  1054.39     0  09:29        0.06
  20579                JUNCTION     0.01     0.01  1039.82     1  07:15        0.01
  20580                JUNCTION     0.02     0.03  1041.22     0  00:22        0.03
  20581                JUNCTION     0.02     0.02  1040.74     0  00:33        0.02
  20582                JUNCTION     0.10     0.10  1005.72     0  02:46        0.10
  20621                JUNCTION     0.01     0.01   975.16     0  05:19        0.01
  20622                JUNCTION     0.01     0.01   968.31     0  07:38        0.01
  20724                JUNCTION     0.16     0.18   966.24     1  13:48        0.18
  20725                JUNCTION     0.13     0.13   967.08     1  21:45        0.13
  20726                JUNCTION     0.20     0.23   964.11     1  13:50        0.23
  20727                JUNCTION     0.18     0.20   965.04     1  13:49        0.20
  20728                JUNCTION     0.00     0.00   967.51     0  00:00        0.00
  20729                JUNCTION     0.00     0.00   966.79     0  00:00        0.00
  20740                JUNCTION     0.02     0.02   957.10     0  14:06        0.02
  20804                JUNCTION     0.01     0.01   988.87     0  06:00        0.01
  20805                JUNCTION     0.08     0.08   968.71     0  18:24        0.08
  20806                JUNCTION     0.02     0.02   974.05     0  11:08        0.02
  20807                JUNCTION     0.01     0.01   978.24     2  03:02        0.01
  20808                JUNCTION     0.01     0.01   984.17     0  02:12        0.01
  20824                JUNCTION     0.21     0.21   907.34     0  20:21        0.21
  20825                JUNCTION     0.02     0.02   911.47     1  07:44        0.02
  20826                JUNCTION     0.02     0.02   915.94     0  03:15        0.02
  23588                JUNCTION     0.16     0.16   874.53     0  14:02        0.16
  28062                JUNCTION     0.09     0.09   974.25     1  06:41        0.09
  28063                JUNCTION     0.11     0.11   973.06     0  12:42        0.11
  28064                JUNCTION     0.09     0.09   967.19     1  18:26        0.09
  28069                JUNCTION     0.14     0.14  1018.26     0  01:17        0.14
  28070                JUNCTION     0.06     0.06  1022.58     1  18:04        0.06
  28071                JUNCTION     0.11     0.11  1020.74     1  09:27        0.11
  28072                JUNCTION     0.02     0.02  1031.58     0  02:43        0.02
  28073                JUNCTION     0.02     0.02  1026.96     1  04:29        0.02
  28074                JUNCTION     0.13     0.13  1021.94     1  00:17        0.13
  28075                JUNCTION     0.06     0.06  1021.80     1  00:26        0.06
  28082                JUNCTION     0.06     0.06  1018.55     0  10:10        0.06
  28083                JUNCTION     0.13     0.13  1025.63     0  21:07        0.13
  28085                JUNCTION     0.06     0.06   940.46     1  00:44        0.06
  28086                JUNCTION     0.12     0.12   936.82     1  02:59        0.12
  28097                JUNCTION     0.04     0.04   991.33     1  11:45        0.04
  28124                JUNCTION     0.01     0.01  1003.92     0  13:51        0.01
  28125                JUNCTION     0.01     0.01   988.50     1  09:33        0.01
  28421                JUNCTION     0.58     0.66   869.70     0  00:01        0.58
  28422                JUNCTION     0.09     0.10   872.02     0  17:00        0.10
  28423                JUNCTION     0.07     0.07   949.02     0  04:55        0.07
  28424                JUNCTION     0.12     0.12   947.30     0  06:33        0.12
  28425                JUNCTION     0.09     0.09   969.23     0  19:26        0.09
  28426                JUNCTION     0.07     0.07   957.18     1  00:59        0.07
  28427                JUNCTION     0.02     0.02   983.07     1  20:34        0.02
  28428                JUNCTION     0.02     0.02   978.58     1  05:44        0.02
  28429                JUNCTION     0.05     0.05   977.06     1  23:32        0.05
  28430                JUNCTION     0.07     0.07   981.24     1  04:15        0.07
  28431                JUNCTION     0.07     0.07   984.56     1  17:58        0.07
  28432                JUNCTION     0.04     0.04   995.69     1  00:49        0.04
  28433                JUNCTION     0.06     0.06   988.16     1  19:19        0.06
  28434                JUNCTION     0.02     0.02   977.75     0  04:32        0.02
  28435                JUNCTION     0.06     0.06  1010.13     1  14:23        0.06
  28436                JUNCTION     0.01     0.01   974.34     1  22:59        0.01
  28437                JUNCTION     0.00     0.00  1010.84     0  00:00        0.00
  28438                JUNCTION     0.02     0.02  1004.59     0  17:35        0.02
  28530                JUNCTION     0.02     0.02   960.34     1  18:05        0.02
  28531                JUNCTION     0.01     0.01   917.69     0  21:31        0.01
  28535                JUNCTION     0.01     0.01   977.00     0  18:17        0.01
  28536                JUNCTION     0.01     0.01   992.05     0  07:50        0.01
  28537                JUNCTION     0.10     0.11  1025.04     1  18:13        0.11
  28621                JUNCTION     0.01     0.01  1005.19     1  04:56        0.01
  28622                JUNCTION     0.02     0.02   988.21     0  05:19        0.02
  28623                JUNCTION     0.02     0.02   988.46     0  05:33        0.02
  28624                JUNCTION     0.02     0.02   997.44     1  18:16        0.02
  28625                JUNCTION     0.02     0.02   977.66     0  01:15        0.02
  28626                JUNCTION     0.03     0.03   970.91     0  01:16        0.03
  28627                JUNCTION     0.02     0.02   984.49     1  02:09        0.02
  28628                JUNCTION     0.03     0.03   985.63     0  05:06        0.03
  28629                JUNCTION     0.01     0.01   985.94     1  20:40        0.01
  28630                JUNCTION     0.01     0.01   982.51     2  05:42        0.01
  28631                JUNCTION     0.02     0.02   966.75     0  10:02        0.02
  28632                JUNCTION     0.02     0.02   967.76     0  03:14        0.02
  28633                JUNCTION     0.03     0.03   955.38     0  05:18        0.03
  28634                JUNCTION     0.01     0.01   978.86     2  01:28        0.01
  28635                JUNCTION     0.01     0.01   981.06     0  01:17        0.01
  28636                JUNCTION     0.06     0.06   966.80     1  15:43        0.06
  28637                JUNCTION     0.06     0.06   965.37     1  00:30        0.06
  28638                JUNCTION     0.01     0.01   984.60     0  07:46        0.01
  28639                JUNCTION     0.02     0.02   993.91     0  01:20        0.02
  28640                JUNCTION     0.02     0.02   986.28     1  13:03        0.02
  28641                JUNCTION     0.02     0.02   980.57     0  09:01        0.02
  28653                JUNCTION     0.06     0.06  1004.19     0  06:20        0.06
  28654                JUNCTION     0.09     0.09  1003.06     1  20:52        0.09
  28655                JUNCTION     0.10     0.10   997.64     1  20:53        0.10
  28656                JUNCTION     0.12     0.12   992.77     1  20:57        0.12
  28657                JUNCTION     0.09     0.09   989.99     2  02:25        0.09
  28658                JUNCTION     0.09     0.09   982.98     0  16:43        0.09
  28659                JUNCTION     0.04     0.04   985.98     1  18:05        0.04
  28660                JUNCTION     0.03     0.03   990.53     1  08:25        0.03
  28661                JUNCTION     0.02     0.02  1001.46     1  00:45        0.02
  28662                JUNCTION     0.02     0.02   997.37     1  12:32        0.02
  28663                JUNCTION     0.02     0.02  1002.43     0  02:44        0.02
  28664                JUNCTION     0.01     0.01   997.40     2  05:11        0.01
  28665                JUNCTION     0.07     0.07   983.09     0  13:56        0.07
  28666                JUNCTION     0.02     0.02   983.04     2  00:04        0.02
  28667                JUNCTION     0.02     0.02   959.86     0  05:03        0.02
  28668                JUNCTION     0.03     0.03   946.67     0  09:10        0.03
  28669                JUNCTION     0.03     0.03   936.31     0  16:58        0.03
  28670                JUNCTION     0.03     0.03   926.77     1  12:56        0.03
  28671                JUNCTION     0.04     0.04   925.09     0  16:15        0.04
  28672                JUNCTION     0.14     0.14   932.95     1  16:15        0.14
  28673                JUNCTION     0.14     0.14   940.10     0  10:41        0.14
  28674                JUNCTION     0.02     0.02   979.40     0  09:44        0.02
  28675                JUNCTION     0.00     0.00   987.19     1  02:13        0.00
  28676                JUNCTION     0.02     0.02   994.66     0  01:01        0.02
  28702                JUNCTION     0.08     0.08   884.47     0  04:37        0.08
  28703                JUNCTION     0.02     0.02   910.24     1  20:16        0.02
  28711                JUNCTION     0.03     0.03  1031.61     1  21:45        0.03
  28711A               JUNCTION     0.00     0.00  1035.50     1  01:55        0.00
  28712                JUNCTION     0.09     0.09  1031.83     1  04:19        0.09
  28713                JUNCTION     0.05     0.05  1032.81     0  00:30        0.05
  28714                JUNCTION     0.06     0.06  1034.13     0  17:50        0.06
  28811                JUNCTION     0.03     0.03  1042.01     0  15:02        0.03
  28812                JUNCTION     0.04     0.04  1028.85     0  01:10        0.04
  28813                JUNCTION     0.00     0.00  1008.87     0  00:00        0.00
  28814                JUNCTION     0.00     0.00  1012.05     0  00:00        0.00
  28815                JUNCTION     0.02     0.02   996.93     0  05:50        0.02
  28816                JUNCTION     0.01     0.01   992.91     0  10:00        0.01
  28817                JUNCTION     0.01     0.01  1001.41     1  11:38        0.01
  28818                JUNCTION     0.00     0.00  1006.39     0  00:00        0.00
  28865                JUNCTION     0.00     0.00   981.70     1  18:04        0.00
  28866                JUNCTION     0.01     0.01   975.51     0  01:48        0.01
  28867                JUNCTION     0.03     0.03   969.42     0  23:19        0.03
  28868                JUNCTION     0.04     0.04   895.37     1  07:01        0.04
  28869                JUNCTION     0.03     0.03   964.86     0  20:09        0.03
  28870                JUNCTION     0.02     0.02   976.52     1  18:48        0.02
  28871                JUNCTION     0.01     0.01   983.82     0  00:53        0.01
  28872                JUNCTION     0.01     0.01   986.13     0  05:19        0.01
  28873                JUNCTION     0.03     0.03   938.25     0  10:04        0.03
  28874                JUNCTION     0.04     0.04   925.71     0  08:44        0.04
  29555                JUNCTION     0.02     0.02  1009.33     1  10:43        0.02
  29556                JUNCTION     0.01     0.01  1008.58     1  18:49        0.01
  29557                JUNCTION     0.01     0.01  1010.53     0  00:41        0.01
  29558                JUNCTION     0.02     0.02   996.91     0  09:01        0.02
  29559                JUNCTION     0.03     0.03   990.73     2  05:10        0.03
  29560                JUNCTION     0.05     0.05   987.35     0  17:50        0.05
  29703                JUNCTION     0.07     0.07   967.13     0  00:28        0.07
  29704                JUNCTION     0.04     0.04   979.07     0  00:28        0.04
  29705                JUNCTION     0.04     0.05   987.53     0  00:09        0.05
  29732                JUNCTION     0.01     0.01   994.91     0  01:09        0.01
  29811                JUNCTION     0.03     0.03   924.29     0  17:35        0.03
  29812                JUNCTION     0.02     0.02   976.56     1  21:46        0.02
  29814                JUNCTION     0.02     0.02   968.38     0  16:53        0.02
  29826                JUNCTION     0.04     0.04   964.31     0  11:16        0.04
  29827                JUNCTION     0.03     0.03   959.88     0  01:16        0.03
  29828                JUNCTION     0.05     0.05   948.40     0  01:22        0.05
  29849                JUNCTION     0.21     0.21   925.08     0  16:16        0.21
  29864                JUNCTION     0.16     0.16   933.44     1  18:23        0.16
  29865                JUNCTION     0.15     0.15   930.20     1  18:23        0.15
  29866                JUNCTION     0.12     0.12   873.49     1  11:52        0.12
  29867                JUNCTION     0.23     0.23   921.89     1  18:26        0.23
  29886                JUNCTION     0.09     0.09  1023.51     1  00:15        0.09
  29887                JUNCTION     0.32     0.33   881.91     1  00:22        0.33
  29888                JUNCTION     0.32     0.32   883.05     1  21:50        0.32
  29889                JUNCTION     0.32     0.32   884.49     1  00:37        0.32
  29890                JUNCTION     0.32     0.32   887.75     2  02:21        0.32
  29891                JUNCTION     0.32     0.32   893.54     0  19:24        0.32
  29892                JUNCTION     0.38     0.38   896.26     1  06:03        0.38
  29893                JUNCTION     0.31     0.31   898.04     0  19:53        0.31
  29894                JUNCTION     0.21     0.21   921.79     0  16:17        0.21
  29895                JUNCTION     0.23     0.23   923.95     0  16:16        0.23
  29896                JUNCTION     0.04     0.04   919.49     0  01:23        0.04
  29897                JUNCTION     0.35     0.35   900.94     0  19:52        0.35
  29898                JUNCTION     0.22     0.22   955.94     1  15:39        0.22
  29899                JUNCTION     0.32     0.32   951.57     0  19:45        0.32
  29900                JUNCTION     0.19     0.19   949.98     2  04:41        0.19
  29901                JUNCTION     0.19     0.19   937.75     1  15:26        0.19
  29902                JUNCTION     0.19     0.19   919.47     0  21:37        0.19
  29903                JUNCTION     1.11     1.12   905.12     1  01:55        1.12
  29904                JUNCTION     0.21     0.21   938.77     2  05:10        0.21
  29905                JUNCTION     0.09     0.09   937.90     2  04:56        0.09
  29906                JUNCTION     0.21     0.22  1005.96     1  20:11        0.22
  29907                JUNCTION     0.10     0.11  1006.20     1  21:21        0.11
  29908                JUNCTION     0.07     0.07  1007.79     0  12:23        0.07
  29909                JUNCTION     0.00     0.00  1010.46     2  02:55        0.00
  29910                JUNCTION     0.02     0.02  1006.61     1  00:45        0.02
  29911                JUNCTION     0.02     0.02  1004.76     2  01:04        0.02
  29912                JUNCTION     0.08     0.08  1012.01     0  21:13        0.08
  29913                JUNCTION     0.06     0.06  1011.17     0  21:17        0.06
  29914                JUNCTION     0.12     0.12  1005.20     2  03:33        0.12
  29915                JUNCTION     0.10     0.10  1014.93     0  10:38        0.10
  29916                JUNCTION     0.04     0.04  1018.04     0  12:37        0.04
  29917                JUNCTION     0.19     0.19  1015.33     1  18:38        0.19
  29918                JUNCTION     0.14     0.14  1015.64     0  07:00        0.14
  29919                JUNCTION     0.06     0.06  1017.48     0  23:44        0.06
  29920                JUNCTION     0.11     0.11  1018.09     0  07:24        0.11
  29921                JUNCTION     0.06     0.06  1022.29     1  15:40        0.06
  29933                JUNCTION     0.01     0.01   969.05     0  20:49        0.01
  29934                JUNCTION     0.02     0.03  1057.92     0  00:04        0.03
  29935                JUNCTION     0.17     0.17   913.17     1  06:56        0.17
  29953                JUNCTION     0.06     0.06  1046.67     0  22:51        0.06
  29954                JUNCTION     0.02     0.02  1003.56     0  22:46        0.02
  29955                JUNCTION     0.16     0.16   983.26     2  05:35        0.16
  29993                JUNCTION     0.04     0.04   961.09     0  10:38        0.04
  29994                JUNCTION     0.03     0.03   957.73     0  03:20        0.03
  29995                JUNCTION     0.04     0.04   937.19     1  00:32        0.04
  29996                JUNCTION     0.01     0.01   949.96     0  02:26        0.01
  29997                JUNCTION     0.04     0.04   931.40     1  10:01        0.04
  29998                JUNCTION     0.02     0.02   933.87     0  03:59        0.02
  29999                JUNCTION     0.04     0.04   922.24     1  00:13        0.04
  30000                JUNCTION     0.16     0.16   919.20     2  00:32        0.16
  30001                JUNCTION     0.23     0.23   920.36     0  09:14        0.23
  30002                JUNCTION     0.03     0.03   930.84     0  11:34        0.03
  30003                JUNCTION     0.03     0.03   937.26     1  04:56        0.03
  30004                JUNCTION     0.03     0.03   940.06     1  06:40        0.03
  30005                JUNCTION     0.03     0.03   943.32     0  08:19        0.03
  30006                JUNCTION     0.02     0.02   950.91     0  21:31        0.02
  30007                JUNCTION     0.02     0.02   958.02     2  03:55        0.02
  30008                JUNCTION     0.01     0.01   964.79     0  08:23        0.01
  30037                JUNCTION     0.03     0.03   962.32     0  20:34        0.03
  30038                JUNCTION     0.02     0.02   978.58     0  12:15        0.02
  30039                JUNCTION     0.01     0.01   998.11     1  21:52        0.01
  30040                JUNCTION     0.03     0.03   962.34     1  05:12        0.03
  30041                JUNCTION     0.05     0.05   961.56     0  20:39        0.05
  30042                JUNCTION     0.29     0.29   876.70     0  22:16        0.29
  30043                JUNCTION     0.04     0.04   929.04     1  04:36        0.04
  30044                JUNCTION     0.04     0.04   919.76     1  00:50        0.04
  30045                JUNCTION     0.04     0.04   911.25     1  00:51        0.04
  30046                JUNCTION     0.03     0.03   939.06     1  23:38        0.03
  30047                JUNCTION     0.20     0.20   883.59     0  22:14        0.20
  30048                JUNCTION     0.15     0.15   889.98     1  02:34        0.15
  30049                JUNCTION     0.02     0.02   899.65     0  11:25        0.02
  30050                JUNCTION     0.40     0.40   878.75     0  22:16        0.40
  30051                JUNCTION     0.33     0.33   880.22     1  15:56        0.33
  30098                JUNCTION     0.20     0.20   900.07     1  02:33        0.20
  30099                JUNCTION     0.01     0.01   916.26     0  00:45        0.01
  30100                JUNCTION     0.03     0.03   911.58     2  03:32        0.03
  30101                JUNCTION     0.03     0.03   926.10     0  07:24        0.03
  30102                JUNCTION     0.01     0.01   930.49     0  00:48        0.01
  30103                JUNCTION     0.03     0.03   928.92     0  03:45        0.03
  30104                JUNCTION     0.02     0.02   940.65     1  16:02        0.02
  30105                JUNCTION     0.02     0.02   941.71     0  01:29        0.02
  30106                JUNCTION     0.02     0.02   950.43     1  01:55        0.02
  30107                JUNCTION     0.06     0.06   950.47     1  20:01        0.06
  30108                JUNCTION     0.02     0.02   961.66     0  00:11        0.02
  30109                JUNCTION     0.02     0.02   960.69     0  00:19        0.02
  30110                JUNCTION     0.22     0.22   903.95     1  02:32        0.22
  30111                JUNCTION     0.02     0.02   962.18     0  05:23        0.02
  30112                JUNCTION     0.03     0.03   951.45     1  03:18        0.03
  30113                JUNCTION     0.01     0.01   949.41     0  01:24        0.01
  30114                JUNCTION     0.02     0.02   935.57     0  17:35        0.02
  30115                JUNCTION     0.04     0.04   923.34     1  19:21        0.04
  30116                JUNCTION     0.03     0.03   922.17     2  03:51        0.03
  30117                JUNCTION     0.04     0.04   922.15     0  13:39        0.04
  30118                JUNCTION     0.21     0.21   901.93     1  02:32        0.21
  30119                JUNCTION     0.04     0.04   918.88     0  09:09        0.04
  30120                JUNCTION     0.04     0.04   927.75     0  02:54        0.04
  30121                JUNCTION     0.03     0.03   934.45     0  10:36        0.03
  30122                JUNCTION     0.01     0.01   938.89     0  01:52        0.01
  30123                JUNCTION     0.01     0.01   948.63     0  00:50        0.01
  30124                JUNCTION     0.02     0.02   946.04     1  09:14        0.02
  30125                JUNCTION     0.17     0.17   915.23     1  10:36        0.17
  30126                JUNCTION     0.22     0.22   905.89     0  20:21        0.22
  30127                JUNCTION     0.17     0.17   908.93     1  02:30        0.17
  30128                JUNCTION     0.26     0.26   891.08     1  02:34        0.26
  30129                JUNCTION     0.11     0.11   897.90     1  02:33        0.11
  30130                JUNCTION     0.01     0.01   926.50     0  05:46        0.01
  30143                JUNCTION     0.06     0.06  1020.28     1  14:01        0.06
  30144                JUNCTION     0.05     0.05  1023.15     1  23:05        0.05
  30145                JUNCTION     0.05     0.05  1024.80     1  16:02        0.05
  30157                JUNCTION     0.33     0.34   874.10     0  22:16        0.34
  30158                JUNCTION     0.44     0.44   871.10     0  22:17        0.44
  30178                JUNCTION     0.07     0.07   959.60     0  14:42        0.07
  30179                JUNCTION     0.15     0.15   947.07     0  07:30        0.15
  30180                JUNCTION     0.02     0.02   987.70     1  23:58        0.02
  30181                JUNCTION     0.01     0.01   970.96     0  19:54        0.01
  30552                JUNCTION     0.19     0.19   923.18     0  16:17        0.19
  30553                JUNCTION     0.02     0.02   986.76     0  03:16        0.02
  30554                JUNCTION     0.07     0.08   950.18     1  03:56        0.08
  30555                JUNCTION     0.07     0.07   924.39     1  00:50        0.07
  30571                JUNCTION     0.20     0.20   971.03     1  04:35        0.20
  30572                JUNCTION     0.02     0.02   989.17     1  06:59        0.02
  30573                JUNCTION     0.01     0.01   993.73     0  13:38        0.01
  30574                JUNCTION     0.05     0.05   952.36     0  02:45        0.05
  31561                JUNCTION     0.01     0.01   972.12     1  09:30        0.01
  31685                JUNCTION     0.03     0.03   971.30     1  22:31        0.03
  31686                JUNCTION     0.02     0.02   976.39     0  19:54        0.02
  31687                JUNCTION     0.01     0.01   979.70     1  05:59        0.01
  31688                JUNCTION     0.01     0.01   978.68     1  13:30        0.01
  31996                JUNCTION     0.42     0.43   977.33     0  20:37        0.43
  32103                JUNCTION     0.12     0.12   968.03     1  18:04        0.12
  32105                JUNCTION     0.19     0.19   967.14     1  08:34        0.19
  32106                JUNCTION     0.04     0.04   996.12     0  00:02        0.04
  32109                JUNCTION     0.09     0.09  1007.93     0  02:32        0.09
  32118                JUNCTION     0.08     0.08   883.37     1  13:35        0.08
  32144                JUNCTION     0.03     0.03  1000.70     1  05:46        0.03
  32145                JUNCTION     0.03     0.03  1002.26     2  04:08        0.03
  32182                JUNCTION     0.06     0.06  1005.45     0  02:48        0.06
  32215                JUNCTION     0.01     0.01  1009.42     0  23:40        0.01
  32352                JUNCTION     0.01     0.01  1001.94     1  03:18        0.01
  32353                JUNCTION     0.02     0.02   995.97     0  12:33        0.02
  32870                JUNCTION     0.03     0.03   906.70     0  12:01        0.03
  32871                JUNCTION     0.03     0.03   927.91     0  11:34        0.03
  32879                JUNCTION     0.15     0.15   954.14     0  12:31        0.15
  32880                JUNCTION     0.03     0.03   958.79     0  23:36        0.03
  33445                JUNCTION     0.16     0.16   873.88     0  17:56        0.16
  33451                JUNCTION     0.04     0.04   935.90     0  01:22        0.04
  33452                JUNCTION     0.03     0.03   966.35     0  10:14        0.03
  33556                JUNCTION     0.02     0.02  1003.24     0  01:07        0.02
  33557                JUNCTION     0.00     0.00  1008.85     0  01:01        0.00
  33559                JUNCTION     0.24     0.24   942.19     1  11:04        0.24
  33560                JUNCTION     0.03     0.03   945.73     1  03:46        0.03
  33561                JUNCTION     0.04     0.04   983.23     0  00:23        0.04
  33562                JUNCTION     0.07     0.07   954.99     0  14:38        0.07
  33563                JUNCTION     0.02     0.03   899.65     1  20:38        0.03
  33578                JUNCTION     0.04     0.04  1025.26     0  00:44        0.04
  33579                JUNCTION     0.04     0.04  1028.21     0  00:23        0.04
  33580                JUNCTION     0.00     0.00  1057.89     0  00:00        0.00
  33598                JUNCTION     0.00     0.00     0.00     0  00:00        0.00
  33646                JUNCTION     0.12     0.14   966.61     1  13:48        0.14
  33653                JUNCTION     0.16     0.16  1015.49     0  11:49        0.16
  33685                JUNCTION     0.01     0.01  1011.53     1  02:37        0.01
  33686                JUNCTION     0.02     0.02  1020.02     0  17:26        0.02
  33688                JUNCTION     0.04     0.04   952.72     0  01:14        0.04
  33702                JUNCTION     0.02     0.02   959.71     0  16:53        0.02
  33709                JUNCTION     0.12     0.12   967.68     0  09:16        0.12
  33891                JUNCTION     0.03     0.03   954.31     0  16:12        0.03
  34316                JUNCTION     0.12     0.13   978.07     1  18:19        0.13
  34344                JUNCTION     0.04     0.04   990.56     0  03:07        0.04
  34345                JUNCTION     0.01     0.01   992.07     0  23:39        0.01
  34350                JUNCTION     0.02     0.02  1027.98     0  09:01        0.02
  34351                JUNCTION     0.01     0.01  1032.32     1  05:23        0.01
  34352                JUNCTION     0.01     0.01  1035.13     0  01:09        0.01
  34353                JUNCTION     0.01     0.01  1026.13     0  23:37        0.01
  34354                JUNCTION     0.01     0.01  1023.82     1  20:31        0.01
  34355                JUNCTION     0.02     0.02   987.22     2  05:43        0.02
  34356                JUNCTION     0.03     0.03   971.81     0  04:09        0.03
  34357                JUNCTION     0.03     0.03   964.79     0  21:18        0.03
  34358                JUNCTION     0.02     0.02   964.62     0  00:09        0.02
  34359                JUNCTION     0.01     0.01   993.59     1  01:27        0.01
  34360                JUNCTION     0.02     0.02   989.09     1  12:49        0.02
  34426                JUNCTION     0.03     0.03  1008.69     1  19:29        0.03
  34428                JUNCTION     0.01     0.01  1057.94     1  23:13        0.01
  34434                JUNCTION     0.03     0.03   983.00     2  05:42        0.03
  34435                JUNCTION     0.06     0.06   983.04     1  21:18        0.06
  34479                JUNCTION     0.16     0.16   945.79     1  22:02        0.16
  34587                JUNCTION     0.05     0.05   976.99     1  08:17        0.05
[...]
  4130                    1.00   0.00  0.00  0.00  0.00  0.00  0.00  1.00  0.00  0.00
  4131                    1.00   0.00  0.00  0.00  0.00  0.00  0.00  1.00  0.00  0.00
  4132                    1.00   0.00  0.00  0.00  0.00  0.00  0.00  1.00  0.00  0.00
  4133                    1.00   0.00  0.00  0.00  0.94  0.00  0.00  0.06  0.94  0.00
  4134                    1.00   0.00  0.00  0.00  0.98  0.00  0.00  0.02  0.04  0.00
  4135                    1.00   0.00  0.00  0.00  0.00  0.00  0.00  1.00  0.00  0.00
  4136                    1.00   0.00  0.00  0.00  0.00  0.00  0.00  1.00  0.00  0.00
  4146                    1.00   1.00  0.00  0.00  0.00  0.00  0.00  0.00  0.00  0.00
  4147                    1.00   0.00  0.00  0.00  0.00  0.00  0.00  1.00  0.00  0.00
  4148                    1.00   0.00  0.00  0.00  0.00  0.00  0.00  1.00  0.00  0.00
  4149                    1.00   0.00  0.00  0.00  0.00  1.00  0.00  0.00  0.00  0.00
  4150                    1.00   0.00  0.00  0.00  1.00  0.00  0.00  0.00  1.00  0.00
  4151                    1.00   0.00  0.00  0.00  0.00  0.00  0.00  1.00  0.00  0.00
  4152                    1.00   0.00  0.00  0.00  0.00  0.00  0.00  1.00  0.00  0.00
  5789                    1.10   0.00  0.00  0.00  0.00  0.00  0.00  1.00  0.00  0.00
  5790                    1.00   0.00  0.00  0.00  0.00  0.00  0.00  1.00  0.00  0.00
  5791                    1.00   0.00  0.00  0.00  0.00  0.00  0.00  1.00  0.00  0.00
  5792                    1.00   0.00  0.00  0.00  0.00  0.00  0.00  1.00  0.00  0.00
  5962                    1.00   0.00  0.00  0.00  0.00  0.00  0.00  1.00  0.00  0.00
  5963                    1.00   0.00  0.00  0.00  0.00  0.00  0.00  1.00  0.00  0.00
  5964                    1.00   0.00  0.00  0.00  0.00  0.00  0.00  1.00  0.00  0.00
  5965                    1.00   0.00  0.00  0.00  0.00  0.00  0.00  1.00  0.00  0.00
  5966                    1.00   0.00  0.00  0.00  0.00  0.00  0.00  1.00  0.00  0.00
  5967                    1.00   0.00  0.00  0.00  0.00  0.00  0.00  1.00  0.00  0.00
  5968                    1.00   0.00  0.00  0.00  0.00  0.00  0.00  1.00  0.00  0.00
  5969                    1.00   0.00  0.00  0.00  0.00  0.00  0.00  1.00  0.00  0.00
  5970                    2.90   0.00  0.00  0.00  0.00  0.00  0.00  1.00  0.00  0.00
  5971                    1.00   0.00  0.00  0.00  0.00  0.00  0.00  1.00  0.00  0.00
  5972                    1.00   0.00  0.00  0.00  0.00  0.00  0.00  1.00  0.00  0.00
  5973                    1.00   0.00  0.00  0.00  0.00  0.00  0.00  1.00  0.00  0.00
  5974                    1.00   0.00  0.00  0.00  0.00  0.00  0.00  1.00  0.00  0.00
  5975                    1.00   0.00  0.00  0.00  0.00  0.00  0.00  1.00  0.00  0.00
  5976                    1.00   0.00  0.00  0.00  0.00  0.00  0.00  1.00  0.00  0.00
  5977                    1.00   0.00  0.00  0.00  0.00  0.00  0.00  1.00  0.00  0.00
  5978                    1.00   0.00  0.00  0.00  0.00  0.00  0.00  1.00  0.00  0.00
  5987                    1.00   0.00  0.00  0.00  0.00  1.00  0.00  0.00  1.00  0.00
  5988                    1.00   0.00  0.00  0.00  0.00  0.00  0.00  1.00  0.00  0.00
  5989                    1.00   0.00  0.00  0.00  0.00  0.00  0.00  1.00  0.00  0.00
  5990                    1.00   0.00  0.00  0.00  0.00  0.00  0.00  1.00  0.00  0.00
  5991                    2.58   0.00  0.00  0.00  0.00  0.00  0.00  1.00  0.00  0.00
  5992                    1.00   0.00  0.00  0.00  1.00  0.00  0.00  0.00  1.00  0.00
  5993                    1.00   0.00  0.00  0.00  0.00  0.00  0.00  1.00  0.00  0.00
  5994                    1.00   0.00  0.00  0.00  0.00  1.00  0.00  0.00  1.00  0.00
  5995                    1.00   0.00  0.00  0.00  1.00  0.00  0.00  0.00  0.00  0.00
  5996                    1.00   0.00  0.00  0.00  0.00  1.00  0.00  0.00  1.00  0.00
  5997                    1.00   0.00  0.00  0.00  0.00  0.00  0.00  1.00  0.00  0.00
  5998                    1.00   0.00  0.00  0.00  0.00  0.00  0.00  1.00  0.00  0.00
  5999                    1.00   0.00  0.00  0.00  0.00  0.00  0.00  1.00  0.00  0.00
  6000                    1.00   0.00  0.00  0.00  0.00  0.00  0.00  1.00  0.00  0.00
  6001                    1.00   0.00  0.00  0.00  0.00  0.00  0.00  1.00  0.00  0.00
  6002                    1.00   0.00  0.00  0.00  1.00  0.00  0.00  0.00  1.00  0.00
  6003                    1.00   0.00  0.00  0.00  0.00  0.00  0.00  1.00  0.00  0.00
  6004                    1.00   0.00  0.00  0.00  0.00  0.00  0.00  1.00  0.00  0.00
  6007                    1.21   0.00  0.00  0.00  0.00  0.00  0.00  1.00  0.00  0.00
  6008                    1.00   0.00  0.00  0.00  0.00  0.00  0.00  1.00  0.00  0.00
  6009                    1.00   0.00  0.00  0.00  0.00  0.00  0.00  1.00  0.00  0.00
  6010                    1.00   0.00  0.00  0.00  0.00  0.00  0.00  1.00  0.00  0.00
  6090                    1.00   0.00  0.00  0.00  0.00  0.00  0.00  1.00  0.00  0.00
  6091                    7.78   0.00  0.00  0.00  0.00  0.00  0.00  1.00  0.00  0.00
  6092                    1.00   0.00  0.00  0.00  0.00  0.00  0.00  1.00  0.00  0.00
  6093                    1.00   0.00  0.00  0.00  0.00  0.00  0.00  1.00  0.00  0.00
  6094                    1.00   0.00  0.00  0.00  0.00  0.00  0.00  1.00  0.00  0.00
  6095                    1.00   0.00  0.00  0.00  0.00  0.00  0.00  1.00  0.00  0.00
  6096                    1.00   0.00  0.00  0.00  0.00  0.00  0.00  1.00  0.00  0.00
  6097                    1.00   0.00  0.00  0.00  0.00  0.00  0.00  1.00  0.00  0.00
  6098                    1.00   0.00  0.00  0.00  0.00  0.00  0.00  1.00  0.00  0.00
  6099                    1.00   0.00  0.00  0.00  0.00  0.00  0.00  1.00  0.00  0.00
  6100                    1.00   0.00  0.00  0.00  0.00  0.00  0.00  1.00  0.00  0.00
  6101                    1.00   0.00  0.00  0.00  0.00  0.00  0.00  1.00  0.00  0.00
  6102                    1.00   0.00  0.00  0.00  0.00  0.00  0.00  1.00  0.00  0.00
  6103                    1.00   0.00  0.00  0.00  0.00  0.00  0.00  1.00  0.00  0.00
  6104                    1.00   0.00  0.00  0.00  0.00  0.00  0.00  1.00  0.00  0.00
  6105                    1.00   0.15  0.00  0.00  0.00  0.00  0.00  0.85  0.00  0.00
  6110_1                  1.00   0.00  0.00  0.00  0.00  0.00  0.00  1.00  0.00  0.00
  6115                    1.00   0.04  0.00  0.00  0.00  0.00  0.00  0.96  0.00  0.00
  6116                    1.00   0.00  0.00  0.00  0.00  0.00  0.00  1.00  0.00  0.00
  6207                    1.00   0.00  0.00  0.00  0.00  0.00  0.00  1.00  0.00  0.00
  6208                    1.00   0.00  0.00  0.00  0.00  1.00  0.00  0.00  1.00  0.00
  6209                    1.00   0.00  0.00  0.00  0.00  0.00  0.00  1.00  0.00  0.00
  6210                    1.00   0.00  0.00  0.00  0.00  0.00  0.00  1.00  0.00  0.00
  6211                    1.00   0.00  0.00  0.00  0.00  0.00  0.00  1.00  0.00  0.00
  6212                    1.00   0.00  0.00  0.00  0.00  0.00  0.00  1.00  0.00  0.00
  6212A                   1.00   0.00  0.00  0.00  0.00  0.00  0.00  1.00  0.00  0.00
  6213                    1.00   0.00  0.00  0.00  0.00  1.00  0.00  0.00  1.00  0.00
  6214                    1.00   0.00  0.00  0.00  0.00  1.00  0.00  0.00  1.00  0.00
  6287                    1.00   0.00  0.00  0.00  1.00  0.00  0.00  0.00  1.00  0.00
  6288                    1.00   0.00  0.00  0.00  1.00  0.00  0.00  0.00  0.00  0.00
  6289                    1.00   0.00  0.00  0.00  0.00  0.00  0.00  1.00  0.00  0.00
  6290                    1.00   0.00  0.00  0.00  0.00  0.00  0.00  1.00  0.00  0.00
  6291                    1.00   0.00  0.00  0.00  0.00  0.00  0.00  1.00  0.00  0.00
  6292                    1.00   0.00  0.00  0.00  0.04  0.96  0.00  0.00  0.00  0.00
  6435                    1.00   0.00  0.00  0.00  0.00  0.00  0.00  1.00  0.00  0.00
  6436                    1.00   0.00  0.00  0.00  0.00  1.00  0.00  0.00  1.00  0.00
  6437                    1.00   0.00  0.00  0.00  1.00  0.00  0.00  0.00  1.00  0.00
  6438                    1.00   0.00  1.00  0.00  0.00  0.00  0.00  0.00  0.00  0.00
  6439                    1.00   0.00  0.00  0.00  1.00  0.00  0.00  0.00  0.99  0.00
  6501                    1.00   0.00  0.00  0.00  0.00  0.00  0.00  1.00  0.00  0.00
  6502                    4.54   0.00  0.00  0.00  1.00  0.00  0.00  0.00  1.00  0.00
  6503                    1.00   0.00  0.00  0.00  0.00  0.00  0.00  1.00  0.00  0.00
  6504                    1.00   0.00  0.00  0.00  0.00  0.00  0.00  1.00  0.00  0.00
  6505                    1.00   0.00  0.00  0.00  0.00  0.00  0.00  1.00  0.00  0.00
  6506                    1.00   0.00  0.00  0.00  0.00  0.00  0.00  1.00  0.00  0.00
  6510                    1.00   0.00  0.00  0.00  0.00  0.00  0.00  1.00  0.00  0.00
  6511                    1.00   0.00  0.00  0.00  0.00  0.00  0.00  1.00  0.00  0.00
  6512                    1.00   0.00  0.00  0.00  0.00  0.00  0.00  1.00  0.00  0.00
  6513                    1.02   0.00  0.00  0.00  0.00  0.00  0.00  1.00  0.00  0.00
  6514                    1.00   0.00  0.00  0.00  0.00  0.00  0.00  1.00  0.00  0.00
  6515                    1.00   0.00  0.00  0.00  0.00  0.00  0.00  1.00  0.00  0.00
  6516                    1.00   0.00  0.00  0.00  0.00  0.00  0.00  1.00  0.00  0.00
  6517                    1.00   0.00  0.00  0.00  0.00  0.00  0.00  1.00  0.00  0.00
  6518                    1.00   0.00  0.00  0.00  0.00  0.00  0.00  1.00  0.00  0.00
  6519                    1.00   0.00  0.00  0.00  0.00  0.00  0.00  1.00  0.00  0.00
  6612                    1.00   0.00  0.00  0.00  0.00  0.00  0.00  1.00  0.00  0.00
  6613                    1.00   0.00  0.00  0.00  0.00  0.00  0.00  1.00  0.00  0.00
  6614                    1.00   0.00  0.00  0.00  1.00  0.00  0.00  0.00  0.00  0.00
  6615                    1.35   0.00  0.00  0.00  0.00  0.00  0.00  1.00  0.00  0.00
  6616                    1.00   0.00  0.00  0.00  0.00  0.00  0.00  1.00  0.00  0.00
  6617                    1.00   0.00  0.00  0.00  0.00  0.00  0.00  1.00  0.00  0.00
  6618                    1.00   0.00  0.00  0.00  0.00  0.00  0.00  1.00  0.00  0.00
  6618A                   1.00   0.00  0.00  0.00  0.00  0.00  0.00  1.00  0.00  0.00
  6619                    1.00   0.00  0.00  0.00  0.00  0.00  0.00  1.00  0.00  0.00
  6620                    1.00   0.00  0.00  0.00  0.00  1.00  0.00  0.00  1.00  0.00
  6621                    1.00   0.00  0.00  0.00  0.00  0.00  0.00  1.00  0.00  0.00
  6831                    2.61   0.00  0.00  0.00  0.00  0.00  0.00  1.00  0.00  0.00
  6832                    1.00   0.00  0.00  0.00  0.00  0.00  0.00  1.00  0.00  0.00
  6833                    1.00   0.00  0.00  0.00  0.00  0.00  0.00  1.00  0.00  0.00
  6834                    1.00   0.00  0.00  0.00  1.00  0.00  0.00  0.00  0.99  0.00
  6835                    1.00   0.00  0.00  0.00  0.00  0.00  0.00  1.00  0.00  0.00
  6836                    1.00   0.00  0.00  0.00  1.00  0.00  0.00  0.00  1.00  0.00
  6837                    1.38   0.00  0.00  0.00  0.00  0.00  0.00  1.00  0.00  0.00
  6838                    1.00   0.00  0.00  0.00  0.00  0.00  0.00  1.00  0.00  0.00
  6839                    1.00   0.00  0.00  0.00  1.00  0.00  0.00  0.00  0.02  0.00
  6840                    1.00   1.00  0.00  0.00  0.00  0.00  0.00  0.00  0.00  0.00
  6841                    1.00   0.00  1.00  0.00  0.00  0.00  0.00  0.00  0.00  0.00
  6914                    1.00   0.00  0.00  0.00  0.00  0.99  0.00  0.01  0.99  0.00
  6915                    1.00   0.00  0.00  0.00  0.00  0.00  0.00  1.00  0.00  0.00
  6916                    1.34   0.00  0.00  0.00  0.00  0.00  0.00  1.00  0.00  0.00
  6917                    1.00   0.00  0.00  0.00  1.00  0.00  0.00  0.00  0.00  0.00
  6943                    1.00   0.00  0.00  0.00  0.00  0.00  0.00  1.00  0.00  0.00
  6944                    1.00   0.00  0.00  0.00  0.00  0.00  0.00  1.00  0.00  0.00
  6945                    1.00   0.00  0.00  0.00  0.00  0.00  0.00  1.00  0.00  0.00
  6946                    1.00   0.00  0.00  0.00  0.00  1.00  0.00  0.00  0.00  0.00
  6947                    1.00   0.00  0.00  0.00  0.00  0.99  0.00  0.01  0.99  0.00
  6948                    1.00   0.00  0.00  0.00  0.00  0.00  0.00  1.00  0.00  0.00
  6949                    1.00   0.00  0.00  0.00  0.00  1.00  0.00  0.00  0.99  0.00
  6950                    1.00   0.00  0.00  0.00  0.00  0.00  0.00  1.00  0.00  0.00
  6961                    4.86   0.00  0.00  0.00  0.02  0.00  0.00  0.98  0.02  0.00
  6969                    1.00   0.00  0.00  0.00  0.00  1.00  0.00  0.00  1.00  0.00
  6970                    1.00   0.00  0.00  0.00  1.00  0.00  0.00  0.00  0.00  0.00
  6971                    1.00   0.00  0.00  0.00  0.00  0.00  0.00  1.00  0.00  0.00
  6972                    1.00   0.00  0.00  0.00  0.00  0.00  0.00  1.00  0.00  0.00
  6973                    1.00   0.00  0.00  0.00  0.00  0.00  0.00  1.00  0.00  0.00
  6974                    1.00   0.00  0.00  0.00  0.00  0.00  0.00  1.00  0.00  0.00
  6975                    1.00   0.00  0.00  0.00  0.99  0.00  0.00  0.01  0.99  0.00
  6976                    1.00   0.00  0.00  0.00  1.00  0.00  0.00  0.00  0.00  0.00
  6977                    1.00   0.00  0.00  0.00  0.00  0.00  0.00  1.00  0.00  0.00
  6978                    1.00   0.00  0.00  0.00  0.00  0.00  0.00  1.00  0.00  0.00
  6979                    1.00   0.00  0.00  0.00  0.00  0.00  0.00  1.00  0.00  0.00
  6980                    1.00   0.00  0.00  0.00  0.00  0.00  0.00  1.00  0.00  0.00
  6981                    1.00   0.00  0.00  0.00  0.00  0.00  0.00  1.00  0.00  0.00
  6982                    1.00   0.00  0.00  0.00  0.00  0.00  0.00  1.00  0.00  0.00
  6983                    1.00   0.00  0.00  0.00  0.00  0.00  0.00  1.00  0.00  0.00
  6984                    1.00   0.00  0.00  0.00  0.00  0.00  0.00  1.00  0.00  0.00
  6985                    1.00   0.00  0.00  0.00  0.00  0.00  0.00  1.00  0.00  0.00
  6986                    1.00   0.00  0.00  0.00  0.00  1.00  0.00  0.00  1.00  0.00
  6987                    1.00   0.00  0.00  0.00  0.00  0.00  0.00  1.00  0.00  0.00
  6988                    1.00   0.00  0.00  0.00  0.00  0.00  0.00  1.00  0.00  0.00
  6989                    1.00   0.00  0.00  0.00  0.00  0.00  0.00  1.00  0.00  0.00
  6990                    1.00   0.00  0.00  0.00  0.00  0.00  0.00  1.00  0.00  0.00
  6991                    1.00   0.00  0.00  0.00  0.00  0.00  0.00  1.00  0.00  0.00
  6992                    1.00   0.00  0.00  0.00  0.00  0.00  0.00  1.00  0.00  0.00
  6993                    1.00   0.00  0.00  0.00  0.00  0.00  0.00  1.00  0.00  0.00
  6994                    1.00   0.00  0.00  0.00  0.00  0.00  0.00  1.00  0.00  0.00
  6995                    1.00   0.00  0.00  0.00  0.00  0.00  0.00  1.00  0.00  0.00
  6996                    2.08   0.00  0.00  0.00  0.00  0.00  0.00  1.00  0.00  0.00
  6997                    1.57   0.00  0.00  0.00  0.00  0.00  0.00  1.00  0.00  0.00
  6998                    1.00   0.00  0.00  0.00  0.00  0.00  0.00  1.00  0.00  0.00
  6999                    1.00   0.00  0.00  0.00  0.00  0.00  0.00  1.00  0.00  0.00
  7000                    1.00   0.00  0.00  0.00  0.00  1.00  0.00  0.00  1.00  0.00
  7001                    1.00   0.00  0.00  0.00  0.00  1.00  0.00  0.00  1.00  0.00
  7002                    1.00   0.00  0.00  0.00  0.00  0.00  0.00  1.00  0.00  0.00
  7003                    1.00   0.00  0.00  0.00  0.00  0.00  0.00  1.00  0.00  0.00
  7118                    1.00   0.00  0.00  0.00  0.00  0.00  0.00  1.00  0.00  0.00
  7119                    1.00   0.00  0.00  0.00  0.00  0.00  0.00  1.00  0.00  0.00
  7120                    1.00   0.00  0.00  0.00  0.00  0.00  0.00  1.00  0.00  0.00
  7121                    1.00   0.00  0.00  0.00  0.00  0.00  0.00  1.00  0.00  0.00
  7122                    1.00   0.00  0.00  0.00  0.00  1.00  0.00  0.00  1.00  0.00
  7123                    1.00   0.00  0.00  0.00  0.00  0.00  0.00  1.00  0.00  0.00
  7124                    1.00   0.00  0.00  0.00  0.00  1.00  0.00  0.00  1.00  0.00
  7125                    1.00   0.00  0.00  0.00  0.00  0.00  0.00  1.00  0.00  0.00
  7126                    1.00   0.00  0.00  0.00  0.00  0.00  0.00  1.00  0.00  0.00
  7127                    1.00   0.00  0.00  0.00  0.00  0.00  0.00  1.00  0.00  0.00
  7128                    1.00   0.00  0.00  0.00  0.00  0.00  0.00  1.00  0.00  0.00
  7129                    1.00   0.00  0.00  0.00  0.00  0.00  0.00  1.00  0.00  0.00
  7130                    1.00   0.00  0.00  0.00  0.00  0.00  0.00  1.00  0.00  0.00
  7131                    1.00   0.00  0.00  0.00  0.00  0.00  0.00  1.00  0.00  0.00
  7132                    1.00   0.00  0.00  0.00  0.00  0.00  0.00  1.00  0.00  0.00
  7133                    1.00   0.00  0.00  0.00  0.00  0.00  0.00  1.00  0.00  0.00
  7134                    1.00   0.00  0.00  0.00  0.00  0.00  0.00  1.00  0.00  0.00
  7135                    1.00   0.00  0.00  0.00  0.00  0.00  0.00  1.00  0.00  0.00
  7198                    1.00   0.00  0.00  0.00  0.00  0.00  0.00  1.00  0.00  0.00
  7199                    1.00   0.00  0.00  0.00  0.00  0.00  0.00  1.00  0.00  0.00
  7200                    1.00   0.00  0.00  0.00  0.00  0.00  0.00  1.00  0.00  0.00
  7201                    1.00   0.00  0.00  0.00  0.99  0.00  0.00  0.01  0.99  0.00
  PIPE1                   1.00   0.00  0.00  0.00  0.00  0.00  0.00  1.00  0.00  0.00
  PIPE2                   1.00   0.00  0.00  0.00  0.00  0.00  0.00  1.00  0.00  0.00
  VINTAGE_FORCEMAIN       1.00   0.00  0.00  0.00  0.87  0.00  0.13  0.00  0.01  0.00
  
  
  *************************
  Conduit Surcharge Summary
  *************************
  
  ----------------------------------------------------------------------------
                                                           Hours        Hours 
                         --------- Hours Full --------   Above Full   Capacity
  Conduit                Both Ends  Upstream  Dnstream   Normal Flow   Limited
  ----------------------------------------------------------------------------
  3092                        0.01      0.01     53.71      0.01         0.01
  3107                        0.01     53.79      0.01     53.85         0.01
  3162                        0.01      0.01     52.84      0.01         0.01
  4133                        0.01      0.01     13.66      0.01         0.01
  4134                       20.62     20.62     52.36      0.01         0.01
  VINTAGE_FORCEMAIN           0.01      0.01     53.32      0.01         0.01
  
  
  ***************
  Pumping Summary
  ***************
  
  ---------------------------------------------------------------------------------------------------------
                                                  Min       Avg       Max     Total     Power    % Time Off
                        Percent   Number of      Flow      Flow      Flow    Volume     Usage    Pump Curve
  Pump                 Utilized   Start-Ups       GPM       GPM       GPM  10^6 gal     Kw-hr    Low   High
  ---------------------------------------------------------------------------------------------------------
  KEVINWHITAKER_LAGPUMP     0.00           0      0.00      0.00      0.00     0.000      0.00    0.0    0.0
  KEVINWHITAKER_LEADPUMP    34.33          40      0.00     25.19     25.19     0.028      0.96    0.0    0.0
  LAGPUMP_VINTAGE          0.00           0      0.00      0.00      0.00     0.000      0.00    0.0    0.0
  LEADPUMP_VINTAGE        13.67         231      0.00    182.78    182.78     0.081      9.59    0.0    0.4
  

  Analysis begun on:  Tue Jun 23 21:35:14 2026
  Analysis ended on:  Tue Jun 23 21:35:53 2026
  Total elapsed time: 00:00:39