
  EPA STORM WATER MANAGEMENT MODEL - VERSION 5.2 (Build 5.2.4)
  ------------------------------------------------------------

  
  ERROR 211: invalid number  at line 11105 of [XSECT] section:
  RV_ALT2-9	CIRCULAR	0.000000	0.000000	0.000000	0.000000	1	0

  
  ERROR 209: undefined object OT121108 at line 21067 of [DWF] section:
  OT121108	FLOW	1.388888	"RESIDENTIAL_LOAD"	""	""	""

  
  ERROR 209: undefined object OT121110 at line 21068 of [DWF] section:
  OT121110	FLOW	0.694444	"RESIDENTIAL_LOAD"	""	""	""

  
  ERROR 209: undefined object OT121111 at line 21069 of [DWF] section:
  OT121111	FLOW	0.694444	"RESIDENTIAL_LOAD"	""	""	""


  Analysis begun on:  Tue Jun 23 21:51:57 2026
  Analysis ended on:  Tue Jun 23 21:51:57 2026
  Total elapsed time: < 1 sec