
  EPA STORM WATER MANAGEMENT MODEL - VERSION 5.2 (Build 5.2.4)
  ------------------------------------------------------------

  WARNING 10: crest elevation raised to downstream invert for regulator Link Outlet_Cell_E_Pond
  
  ****************
  Analysis Options
  ****************
  Flow Units ............... CMS
  Process Models:
    Rainfall/Runoff ........ YES
    RDII ................... NO
    Snowmelt ............... NO
    Groundwater ............ NO
    Flow Routing ........... YES
    Ponding Allowed ........ NO
    Water Quality .......... NO
  Infiltration Method ...... GREEN_AMPT
  Flow Routing Method ...... DYNWAVE
  Surcharge Method ......... EXTRAN
  Starting Date ............ 07/07/2009 00:00:00
  Ending Date .............. 07/12/2009 23:00:00
  Antecedent Dry Days ...... 0.0
  Report Time Step ......... 00:05:00
  Wet Time Step ............ 00:00:30
  Dry Time Step ............ 00:05:00
  Routing Time Step ........ 30.00 sec
  Variable Time Step ....... YES
  Maximum Trials ........... 8
  Number of Threads ........ 1
  Head Tolerance ........... 0.001524 m
  
  
  **************************        Volume         Depth
  Runoff Quantity Continuity     hectare-m            mm
  **************************     ---------       -------
  Initial LID Storage ......         1.506        13.425
  Total Precipitation ......        10.061        89.676
  Evaporation Loss .........         0.000         0.000
  Infiltration Loss ........         1.605        14.308
  Surface Runoff ...........         5.866        52.285
  Final Storage ............         4.096        36.513
  Continuity Error (%) .....        -0.005
  
  
  **************************        Volume        Volume
  Flow Routing Continuity        hectare-m      10^6 ltr
  **************************     ---------     ---------
  Dry Weather Inflow .......         0.000         0.000
  Wet Weather Inflow .......         5.866        58.660
  Groundwater Inflow .......         0.000         0.000
  RDII Inflow ..............         0.000         0.000
  External Inflow ..........         0.000         0.000
  External Outflow .........         0.000         0.000
  Flooding Loss ............         0.000         0.000
  Evaporation Loss .........         0.000         0.000
  Exfiltration Loss ........         0.000         0.000
  Initial Stored Volume ....        10.295       102.953
  Final Stored Volume ......        16.231       162.308
  Continuity Error (%) .....        -0.430
  
  
  *************************
  Highest Continuity Errors
  *************************
  Node Cell_E_Pond (-16.66%)
  
  
  ***************************
  Time-Step Critical Elements
  ***************************
  None
  
  
  ********************************
  Highest Flow Instability Indexes
  ********************************
  All links are stable.
  
  
  *********************************
  Most Frequent Nonconverging Nodes
  *********************************
  Convergence obtained at all time steps.
  
  
  *************************
  Routing Time Step Summary
  *************************
  Minimum Time Step           :    29.50 sec
  Average Time Step           :    30.00 sec
  Maximum Time Step           :    30.00 sec
  % of Time in Steady State   :     0.00
  Average Iterations per Step :     3.88
  % of Steps Not Converging   :     0.00
  Time Step Frequencies       :
     30.000 - 13.228 sec      :   100.00 %
     13.228 -  5.833 sec      :     0.00 %
      5.833 -  2.572 sec      :     0.00 %
      2.572 -  1.134 sec      :     0.00 %
      1.134 -  0.500 sec      :     0.00 %
  
  
  ***************************
  Subcatchment Runoff Summary
  ***************************
  
  ------------------------------------------------------------------------------------------------------------------------------
                            Total      Total      Total      Total     Imperv       Perv      Total       Total     Peak  Runoff
                           Precip      Runon       Evap      Infil     Runoff     Runoff     Runoff      Runoff   Runoff   Coeff
  Subcatchment                 mm         mm         mm         mm         mm         mm         mm    10^6 ltr      CMS
  ------------------------------------------------------------------------------------------------------------------------------
  SF_NDCIA                  89.68       0.00       0.00       0.00      88.08       0.00      88.08       14.47     6.35   0.982
  SF_DCIA                   89.68       0.00       0.00       0.00      88.08       0.00      88.08        3.14     1.38   0.982
  SF_PERV                   89.68      58.89       0.00      34.52       0.00       0.00      72.25       17.76     1.96   0.486
  COMM_DCIA                 89.68       0.00       0.00       0.00      88.08       0.00      88.08        0.21     0.09   0.982
  Pond                      89.68       0.00       0.00       0.00      89.68       0.00      89.68        4.21     1.81   1.000
  COMM_PERV                 89.68     352.33       0.00      34.77       0.00       0.00     324.82        0.46     0.08   0.735
  COMM_NDCIA                89.68       0.00       0.00       0.00      88.08       0.00      88.08        0.50     0.22   0.982
  INST_Fields_IRR           89.68       0.00       0.00      34.21       0.00       0.00       6.50        0.20     0.08   0.073
  INST_PERV                 89.68      43.37       0.00      34.28       0.00       0.00      22.38        0.58     0.17   0.168
  SSA_DCIA                  89.68       0.00       0.00       0.00      88.08       0.00      88.08        3.34     1.47   0.982
  SSA_PERV                  89.68     352.33       0.00      34.77       0.00       0.00     324.85        7.40     1.27   0.735
  SSA_NDCIA                 89.68       0.00       0.00       0.00      88.08       0.00      88.08        8.02     3.51   0.982
  INST_NDCIA                89.68       0.00       0.00       0.00      88.08       0.00      88.08        1.12     0.49   0.982
  MF_PERV                   89.68     143.46       0.00      34.69       0.00       0.00     156.46        1.99     0.25   0.671
  MF_NDCIA                  89.68       0.00       0.00       0.00      88.08       0.00      88.08        1.83     0.80   0.982
  MF_DCIA                   89.68       0.00       0.00       0.00      88.08       0.00      88.08        0.26     0.11   0.982
  PUL_IRR                   89.68       0.00       0.00      34.21       0.00       0.00       6.06        0.08     0.03   0.068
  Cell_E_Road_IMP           89.68      90.35       0.00       0.00     178.43       0.00     178.43       38.83     8.53   0.991
  Cell_E_Road_NDCIA         89.68       0.00       0.00       0.00      88.08       0.00      88.08        0.75     0.33   0.982
  MR_PERV_IRR               89.68       0.00       0.00      34.21       0.00       0.00       6.62        0.28     0.12   0.074
  LRT_PERV                  89.68     176.45       0.00      34.50       0.00       0.00     149.44        0.46     0.07   0.562
  LRT_NDCIA                 89.68       0.00       0.00       0.00      88.08       0.00      88.08        0.54     0.24   0.982
  LRT_DCIA                  89.68       0.00       0.00       0.00      88.08       0.00      88.08        0.27     0.12   0.982
  Cell_E_Road_Perv          89.68     304.08       0.00      34.25       0.00       0.00     276.42       18.89     1.48   0.702
  

  ***********************
  LID Performance Summary
  ***********************

  --------------------------------------------------------------------------------------------------------------------
                                         Total      Evap     Infil   Surface    Drain    Initial     Final  Continuity
                                        Inflow      Loss      Loss   Outflow   Outflow   Storage   Storage       Error
  Subcatchment      LID Control             mm        mm        mm        mm        mm        mm        mm           %
  --------------------------------------------------------------------------------------------------------------------
  SF_PERV           AbsLand7.5in        148.56      0.00     34.52     72.25      0.00     25.72     67.52       -0.00
  COMM_PERV         AbsLand12in         442.01      0.00     34.77    324.82      0.00     40.50    122.93       -0.00
  INST_Fields_IRR   AbsLand12in          89.68      0.00     34.21      6.50      0.00     40.50     89.47       -0.00
  INST_PERV         AbsLand12in         133.05      0.00     34.28     22.38      0.00     40.50    116.89       -0.00
  SSA_PERV          AbsLand12in         442.01      0.00     34.77    324.85      0.00     40.50    122.89       -0.00
  MF_PERV           AbsLand7.5in        233.14      0.00     34.69    156.46      0.00     25.72     67.70       -0.00
  PUL_IRR           AbsLand12in          89.68      0.00     34.21      6.06      0.00     40.50     89.91       -0.00
  MR_PERV_IRR       AbsLand12in          89.68      0.00     34.21      6.62      0.00     40.50     89.36       -0.00
  LRT_PERV          AbsLand12in         266.13      0.00     34.50    149.44      0.00     40.50    122.69       -0.00
  Cell_E_Road_Perv  AbsLand12in         393.76      0.00     34.25    276.42      0.00     40.50    123.59       -0.00
  
  ******************
  Node Depth Summary
  ******************
  
  ---------------------------------------------------------------------------------
                                 Average  Maximum  Maximum  Time of Max    Reported
                                   Depth    Depth      HGL   Occurrence   Max Depth
  Node                 Type       Meters   Meters   Meters  days hr:min      Meters
  ---------------------------------------------------------------------------------
  Outfall              OUTFALL      0.00     0.00  1090.00     0  00:00        0.00
  Cell_E_FB            STORAGE      5.03     5.14  1091.44     5  22:59        5.14
  Cell_E_Pond          STORAGE      5.02     5.14  1091.44     5  23:00        5.14
  
  
  *******************
  Node Inflow Summary
  *******************
  
  -------------------------------------------------------------------------------------------------
                                  Maximum  Maximum                  Lateral       Total        Flow
                                  Lateral    Total  Time of Max      Inflow      Inflow     Balance
                                   Inflow   Inflow   Occurrence      Volume      Volume       Error
  Node                 Type           CMS      CMS  days hr:min    10^6 ltr    10^6 ltr     Percent
  -------------------------------------------------------------------------------------------------
  Outfall              OUTFALL      0.000    0.000     0  00:00           0           0       0.000 ltr
  Cell_E_FB            STORAGE     12.364   12.364     0  07:15        54.4        86.7      21.816
  Cell_E_Pond          STORAGE      1.836    8.650     0  07:16         4.3        97.3     -14.278
  
  
  **********************
  Node Surcharge Summary
  **********************
  
  No nodes were surcharged.
  
  
  *********************
  Node Flooding Summary
  *********************
  
  No nodes were flooded.
  
  
  **********************
  Storage Volume Summary
  **********************
  
  ------------------------------------------------------------------------------------------------
                         Average    Avg   Evap  Exfil     Maximum    Max    Time of Max    Maximum
                          Volume   Pcnt   Pcnt   Pcnt      Volume   Pcnt     Occurrence    Outflow
  Storage Unit           1000 mģ   Full   Loss   Loss     1000 mģ   Full    days hr:min        CMS
  ------------------------------------------------------------------------------------------------
  Cell_E_FB               47.606   65.1    0.0    0.0      49.357   67.5       5  22:59      7.270
  Cell_E_Pond            109.572   69.5    0.0    0.0     112.967   71.6       5  23:00      3.812
  
  
  ***********************
  Outfall Loading Summary
  ***********************
  
  -----------------------------------------------------------
                         Flow       Avg       Max       Total
                         Freq      Flow      Flow      Volume
  Outfall Node           Pcnt       CMS       CMS    10^6 ltr
  -----------------------------------------------------------
  Outfall                0.00     0.000     0.000       0.000
  -----------------------------------------------------------
  System                 0.00     0.000     0.000       0.000
  
  
  ********************
  Link Flow Summary
  ********************
  
  -----------------------------------------------------------------------------
                                 Maximum  Time of Max   Maximum    Max/    Max/
                                  |Flow|   Occurrence   |Veloc|    Full    Full
  Link                 Type          CMS  days hr:min     m/sec    Flow   Depth
  -----------------------------------------------------------------------------
  FB_WEIR              WEIR        7.270     0  07:17                      0.67
  Outlet_Cell_E_Pond   DUMMY       0.000     0  00:00
  
  
  ***************************
  Flow Classification Summary
  ***************************
  
  -------------------------------------------------------------------------------------
                      Adjusted    ---------- Fraction of Time in Flow Class ---------- 
                       /Actual         Up    Down  Sub   Sup   Up    Down  Norm  Inlet 
  Conduit               Length    Dry  Dry   Dry   Crit  Crit  Crit  Crit  Ltd   Ctrl  
  -------------------------------------------------------------------------------------
  
  
  *************************
  Conduit Surcharge Summary
  *************************
  
  No conduits were surcharged.
  

  Analysis begun on:  Tue Jun 23 21:51:57 2026
  Analysis ended on:  Tue Jun 23 21:51:57 2026
  Total elapsed time: < 1 sec