
  EPA STORM WATER MANAGEMENT MODEL - VERSION 5.2 (Build 5.2.4)
  ------------------------------------------------------------

  WARNING 04: minimum elevation drop used for Conduit E-PMP-HARDY-1
  WARNING 04: minimum elevation drop used for Conduit E-PMP-HARDY-2
  WARNING 04: minimum elevation drop used for Conduit E-PMP-RENFREW-1
  WARNING 04: minimum elevation drop used for Conduit E-PMP-RENFREW-2
  WARNING 04: minimum elevation drop used for Conduit E-PMP-SIXTH-1
  WARNING 04: minimum elevation drop used for Conduit E-PMP-SIXTH-2
  WARNING 04: minimum elevation drop used for Conduit E-PMP-MAIN-1
  WARNING 04: minimum elevation drop used for Conduit E-PMP-MAIN-2
  
  ****************
  Analysis Options
  ****************
  Flow Units ............... LPS
  Process Models:
    Rainfall/Runoff ........ NO
    RDII ................... NO
    Snowmelt ............... NO
    Groundwater ............ NO
    Flow Routing ........... YES
    Ponding Allowed ........ NO
    Water Quality .......... NO
  Flow Routing Method ...... DYNWAVE
  Surcharge Method ......... EXTRAN
  Starting Date ............ 12/01/2009 00:00:00
  Ending Date .............. 12/03/2009 00:00:00
  Antecedent Dry Days ...... 0.0
  Report Time Step ......... 00:01:00
  Routing Time Step ........ 1.00 sec
  Variable Time Step ....... YES
  Maximum Trials ........... 8
  Number of Threads ........ 1
  Head Tolerance ........... 0.001524 m
  
  
  ERROR 331: cannot open hot start interface file D:\2016PC\NovDec2009\aaa.HSF.

  Analysis begun on:  Tue Jun 23 21:52:03 2026
  Analysis ended on:  Tue Jun 23 21:52:03 2026
  Total elapsed time: < 1 sec