
  EPA STORM WATER MANAGEMENT MODEL - VERSION 5.2 (Build 5.2.4)
  ------------------------------------------------------------

  WARNING 03: negative offset ignored for Link 1004
  WARNING 04: minimum elevation drop used for Conduit 1139
  WARNING 04: minimum elevation drop used for Conduit 1196
  WARNING 04: minimum elevation drop used for Conduit 1684
  WARNING 03: negative offset ignored for Link 2122
  WARNING 03: negative offset ignored for Link 2123
  WARNING 03: negative offset ignored for Link 2308
  WARNING 03: negative offset ignored for Link 2342
  WARNING 04: minimum elevation drop used for Conduit 2778
  WARNING 04: minimum elevation drop used for Conduit 3143
  WARNING 04: minimum elevation drop used for Conduit 3537
  WARNING 04: minimum elevation drop used for Conduit 3980
  WARNING 04: minimum elevation drop used for Conduit 4000
  WARNING 04: minimum elevation drop used for Conduit 4016
  WARNING 03: negative offset ignored for Link 4024
  WARNING 03: negative offset ignored for Link 4025
  WARNING 03: negative offset ignored for Link 4563
  WARNING 03: negative offset ignored for Link 4564
  WARNING 03: negative offset ignored for Link 4565
  WARNING 04: minimum elevation drop used for Conduit 4636
  WARNING 03: negative offset ignored for Link 902
  WARNING 04: minimum elevation drop used for Conduit CDT-17
  WARNING 03: negative offset ignored for Link CDT-19
  
  ****************
  Analysis Options
  ****************
  Flow Units ............... MGD
  Process Models:
    Rainfall/Runoff ........ NO
    RDII ................... NO
    Snowmelt ............... NO
    Groundwater ............ NO
    Flow Routing ........... YES
    Ponding Allowed ........ YES
    Water Quality .......... NO
  Flow Routing Method ...... DYNWAVE
  Surcharge Method ......... EXTRAN
  Starting Date ............ 06/01/2015 00:00:00
  Ending Date .............. 06/03/2015 00:00:00
  Antecedent Dry Days ...... 5.0
  Report Time Step ......... 00:05:00
  Routing Time Step ........ 10.00 sec
  Variable Time Step ....... YES
  Maximum Trials ........... 4
  Number of Threads ........ 1
  Head Tolerance ........... 0.005000 ft
  
  
  **************************        Volume        Volume
  Flow Routing Continuity        acre-feet      10^6 gal
  **************************     ---------     ---------
  Dry Weather Inflow .......       131.829        42.959
  Wet Weather Inflow .......         0.000         0.000
  Groundwater Inflow .......         0.000         0.000
  RDII Inflow ..............         0.000         0.000
  External Inflow ..........         0.001         0.000
  External Outflow .........        94.249        30.713
  Flooding Loss ............        33.255        10.837
  Evaporation Loss .........         0.000         0.000
  Exfiltration Loss ........         0.000         0.000
  Initial Stored Volume ....         0.000         0.000
  Final Stored Volume ......         5.384         1.754
  Continuity Error (%) .....        -0.802
  
  
  *************************
  Highest Continuity Errors
  *************************
  Node STOR-20 (-4.00%)
  Node 2480 (2.66%)
  Node 4426 (1.52%)
  Node JCT-26 (1.43%)
  Node JCT-12 (1.42%)
  
  
  ***************************
  Time-Step Critical Elements
  ***************************
  Link 4386 (100.00%)
  
  
  ********************************
  Highest Flow Instability Indexes
  ********************************
  All links are stable.
  
  
  *********************************
  Most Frequent Nonconverging Nodes
  *********************************
  Node OFALL-12 (1.48%)
  Node JCT-26 (0.79%)
  Node 4108 (0.51%)
  Node JCT-20 (0.25%)
  Node JCT-28 (0.14%)
  
  
  *************************
  Routing Time Step Summary
  *************************
  Minimum Time Step           :     0.39 sec
  Average Time Step           :     0.66 sec
  Maximum Time Step           :     5.48 sec
  % of Time in Steady State   :     0.00
  Average Iterations per Step :     2.03
  % of Steps Not Converging   :     1.48
  Time Step Frequencies       :
     10.000 -  5.493 sec      :     0.00 %
      5.493 -  3.017 sec      :     0.00 %
      3.017 -  1.657 sec      :     0.12 %
      1.657 -  0.910 sec      :     0.43 %
      0.910 -  0.500 sec      :    99.45 %
  
  
  ******************
  Node Depth Summary
  ******************
  
  ---------------------------------------------------------------------------------
                                 Average  Maximum  Maximum  Time of Max    Reported
                                   Depth    Depth      HGL   Occurrence   Max Depth
  Node                 Type         Feet     Feet     Feet  days hr:min        Feet
  ---------------------------------------------------------------------------------
  1000                 JUNCTION     0.71     0.71  3395.16     0  20:35        0.71
  1001                 JUNCTION     0.72     0.72  3396.17     0  15:50        0.72
  1002                 JUNCTION     0.71     0.71  3397.16     0  00:00        0.71
  1003                 JUNCTION     0.71     0.71  3398.16     0  04:11        0.71
  1004                 JUNCTION     0.70     0.70  3399.13     0  04:10        0.70
  1011                 JUNCTION     0.41     0.41  3408.89     0  12:13        0.41
  1012                 JUNCTION     0.40     0.40  3410.60     0  06:19        0.40
  1014                 JUNCTION     0.41     0.41  3413.19     0  20:42        0.41
  1015                 JUNCTION     0.33     0.33  3414.07     0  00:00        0.33
  1016                 JUNCTION     0.32     0.32  3415.02     0  00:00        0.32
  1017                 JUNCTION     0.31     0.31  3404.72     0  04:10        0.31
  1018                 JUNCTION     0.70     0.70  3392.70     0  13:02        0.70
  1019                 JUNCTION     0.26     0.26  3396.36     0  07:40        0.26
  1020                 JUNCTION     0.37     0.37  3397.83     0  02:50        0.37
  1021                 JUNCTION     0.37     0.37  3398.55     0  05:48        0.37
  1022                 JUNCTION     0.32     0.32  3400.54     0  08:13        0.32
  1023                 JUNCTION     0.33     0.33  3401.29     0  00:50        0.33
  1024                 JUNCTION     0.41     0.41  3401.76     0  17:11        0.41
  1025                 JUNCTION     0.34     0.34  3402.24     0  00:53        0.34
  1026                 JUNCTION     0.27     0.27  3404.61     0  08:58        0.27
  1027                 JUNCTION     0.27     0.27  3407.04     0  13:42        0.27
  1028                 JUNCTION     0.19     0.19  3415.24     0  15:15        0.19
  1029                 JUNCTION     0.23     0.23  3418.44     0  04:32        0.23
  1030                 JUNCTION     0.20     0.20  3423.66     0  18:52        0.20
  1031                 JUNCTION     0.19     0.19  3428.11     0  10:45        0.19
  1032                 JUNCTION     0.14     0.14  3434.07     0  00:00        0.14
  1033                 JUNCTION     0.12     0.12  3435.27     0  00:00        0.12
  1034                 JUNCTION     0.09     0.09  3436.46     0  00:00        0.09
  1035                 JUNCTION     0.41     0.41  3424.34     0  04:55        0.41
  1036                 JUNCTION     0.57     0.57  3423.70     0  14:02        0.57
  1037                 JUNCTION     0.52     0.52  3422.85     0  19:22        0.52
  1038                 JUNCTION     0.39     0.39  3421.39     0  10:20        0.39
  1039                 JUNCTION     0.70     0.70  3397.81     0  14:26        0.70
  1040                 JUNCTION     0.65     0.65  3398.62     0  00:01        0.65
  1041                 JUNCTION     0.64     0.64  3399.47     0  00:50        0.64
  1042                 JUNCTION     0.63     0.63  3400.24     0  23:26        0.63
  1043                 JUNCTION     0.60     0.60  3401.11     0  00:32        0.60
  1044                 JUNCTION     0.55     0.55  3402.26     0  00:40        0.55
  1045                 JUNCTION     0.85     0.85  3402.56     0  14:18        0.85
  1046                 JUNCTION     0.55     0.55  3403.22     0  12:21        0.55
  1047                 JUNCTION     0.53     0.53  3403.73     0  12:18        0.53
  1048                 JUNCTION     0.32     0.32  3410.32     0  01:03        0.32
  1049                 JUNCTION     0.33     0.33  3417.33     0  22:47        0.33
  1096                 JUNCTION     0.15     0.15  3393.07     0  00:00        0.15
  1097                 JUNCTION     0.12     0.12  3394.23     0  00:00        0.12
  1117                 JUNCTION     0.70     0.70  3392.70     0  23:38        0.70
  1118                 JUNCTION     0.08     0.08  3401.42     0  00:00        0.08
  1119                 JUNCTION     0.08     0.08  3399.88     0  00:00        0.08
  1120                 JUNCTION     0.28     0.28  3396.61     0  00:11        0.28
  1121                 JUNCTION     0.16     0.16  3396.51     0  00:23        0.16
  1122                 JUNCTION     0.18     0.18  3394.79     0  00:00        0.18
  1136                 JUNCTION     0.07     0.07  3405.13     0  00:02        0.07
  114                  JUNCTION     0.39     0.39  3295.76     0  09:41        0.39
  1182                 JUNCTION     0.37     0.37  3406.28     0  16:34        0.37
  1191                 JUNCTION     0.59     0.59  3424.28     0  00:14        0.59
  1270                 JUNCTION     0.15     0.15  3438.33     0  14:09        0.15
  1271                 JUNCTION     0.17     0.17  3437.56     0  10:38        0.17
  1272                 JUNCTION     0.23     0.23  3436.38     0  14:09        0.23
  1273                 JUNCTION     0.26     0.26  3434.91     0  06:08        0.26
  1274                 JUNCTION     0.25     0.25  3433.45     0  06:16        0.25
  128                  JUNCTION     0.59     0.59  3339.32     0  01:22        0.59
  13                   JUNCTION     0.36     0.36  3296.78     0  10:44        0.36
  1342                 JUNCTION     0.19     0.19  3439.02     0  16:48        0.19
  1343                 JUNCTION     0.26     0.26  3440.32     0  15:08        0.26
  1344                 JUNCTION     0.23     0.23  3441.52     0  00:03        0.23
  1345                 JUNCTION     0.21     0.21  3442.74     0  00:02        0.21
  1347                 JUNCTION     0.21     0.21  3443.81     0  00:02        0.21
  1348                 JUNCTION     0.19     0.19  3444.86     0  00:01        0.19
  1349                 JUNCTION     0.17     0.17  3445.32     0  00:00        0.17
  135                  JUNCTION     0.72     0.72  3336.85     0  16:25        0.72
  1363                 JUNCTION     0.13     0.13  3446.12     0  00:00        0.13
  1364                 JUNCTION     0.13     0.13  3447.12     0  00:00        0.13
  1365                 JUNCTION     0.08     0.08  3449.15     0  00:00        0.08
  137                  JUNCTION     0.88     0.88  3335.57     0  17:46        0.88
  138                  JUNCTION     0.79     0.79  3336.08     0  01:41        0.79
  139                  JUNCTION     0.88     0.88  3336.61     0  01:29        0.88
  1394                 JUNCTION     0.28     0.28  3431.88     0  16:36        0.28
  1395                 JUNCTION     0.21     0.21  3433.03     0  00:00        0.21
  1396                 JUNCTION     0.18     0.18  3433.47     0  00:00        0.18
  1397                 JUNCTION     0.16     0.16  3425.31     0  18:00        0.16
  1398                 JUNCTION     0.53     0.53  3424.83     0  04:54        0.53
  1399                 JUNCTION     0.18     0.18  3427.29     0  11:56        0.18
  1401                 JUNCTION     0.32     0.32  3430.75     0  18:58        0.32
  1402                 JUNCTION     0.21     0.21  3433.36     0  00:02        0.21
  1403                 JUNCTION     0.19     0.19  3434.94     0  14:09        0.19
  1404                 JUNCTION     0.24     0.24  3426.24     0  02:02        0.24
  1407                 JUNCTION     0.29     0.29  3427.99     0  12:01        0.29
  1408                 JUNCTION     0.27     0.27  3430.71     0  01:57        0.27
  1425                 JUNCTION     0.39     0.39  3425.19     0  06:13        0.39
  1426                 JUNCTION     0.17     0.17  3433.70     0  22:49        0.17
  1427                 JUNCTION     0.28     0.28  3435.17     0  01:05        0.28
  1428                 JUNCTION     0.24     0.24  3436.39     0  00:01        0.24
  1429                 JUNCTION     0.21     0.21  3437.65     0  00:15        0.21
  143                  JUNCTION     0.85     0.85  3335.34     0  07:04        0.85
  1430                 JUNCTION     0.18     0.18  3438.45     0  00:13        0.18
  1431                 JUNCTION     0.15     0.15  3439.15     0  00:06        0.15
  1451                 JUNCTION     0.11     0.11  3447.81     0  05:08        0.11
  1452                 JUNCTION     0.10     0.10  3453.27     0  06:29        0.10
  1453                 JUNCTION     0.13     0.13  3455.13     0  03:59        0.13
  1454                 JUNCTION     0.15     0.15  3443.36     0  00:10        0.15
  1458                 JUNCTION     0.27     0.27  3432.32     0  07:03        0.27
  1459                 JUNCTION     0.13     0.13  3441.90     0  01:13        0.13
  1460                 JUNCTION     0.12     0.12  3451.21     0  09:04        0.12
  1464                 JUNCTION     0.24     0.24  3431.17     0  07:03        0.24
  1470                 JUNCTION     0.14     0.14  3478.30     0  00:00        0.14
  1471                 JUNCTION     0.17     0.17  3476.65     0  00:00        0.17
  1472                 JUNCTION     0.20     0.20  3475.00     0  00:00        0.20
  1473                 JUNCTION     0.23     0.23  3473.32     0  00:01        0.23
  1474                 JUNCTION     0.24     0.24  3472.49     0  00:00        0.24
  1475                 JUNCTION     0.50     0.50  3472.24     0  00:06        0.50
  1491                 JUNCTION     0.04     0.04  3450.18     0  00:00        0.04
  1493                 JUNCTION     0.10     0.10  3479.88     0  00:00        0.10
  1494                 JUNCTION     0.06     0.06  3481.65     0  00:00        0.06
  1495                 JUNCTION     0.10     0.10  3465.10     0  00:04        0.10
  1496                 JUNCTION     0.10     0.10  3454.10     0  00:03        0.10
  1497                 JUNCTION     0.15     0.15  3438.37     0  00:42        0.15
  1498                 JUNCTION     0.16     0.16  3441.26     0  16:25        0.16
  150                  JUNCTION     0.85     0.85  3334.86     0  12:51        0.85
  1504                 JUNCTION     0.34     0.34  3428.84     0  06:09        0.34
  1513                 JUNCTION     0.11     0.11  3456.66     0  00:00        0.11
  1514                 JUNCTION     0.09     0.09  3458.24     0  00:00        0.09
  1515                 JUNCTION     0.07     0.07  3459.61     0  00:00        0.07
  154                  JUNCTION     0.84     0.84  3334.73     0  16:57        0.84
  1559                 JUNCTION     0.21     0.21  3452.45     0  09:04        0.21
  1580                 JUNCTION     0.17     0.17  3453.15     0  00:06        0.17
  1581                 JUNCTION     0.16     0.16  3454.51     0  00:05        0.16
  1582                 JUNCTION     0.46     0.46  3428.31     0  10:13        0.46
  1583                 JUNCTION     0.13     0.13  3455.88     0  00:05        0.13
  159                  JUNCTION     0.73     0.73  3334.18     0  16:58        0.73
  1590                 JUNCTION     0.56     0.56  3373.00     0  07:46        0.56
  1591                 JUNCTION     0.57     0.57  3373.78     0  07:44        0.57
  1592                 JUNCTION     0.53     0.53  3374.24     0  00:06        0.53
  1594                 JUNCTION     0.57     0.57  3378.32     0  07:28        0.57
  1595                 JUNCTION     0.34     0.34  3386.79     0  00:52        0.34
  1596                 JUNCTION     0.34     0.34  3395.40     0  08:59        0.34
  1597                 JUNCTION     0.36     0.36  3402.30     0  03:54        0.36
  1598                 JUNCTION     0.35     0.35  3409.07     0  07:54        0.35
  1599                 JUNCTION     0.55     0.55  3410.21     0  07:52        0.55
  1600                 JUNCTION     0.51     0.51  3411.20     0  09:54        0.51
  1601                 JUNCTION     0.49     0.49  3411.72     0  04:36        0.49
  1602                 JUNCTION     0.52     0.52  3412.59     0  14:26        0.52
  1603                 JUNCTION     0.55     0.55  3412.87     0  02:11        0.55
  1604                 JUNCTION     0.54     0.54  3413.02     0  02:02        0.54
  1605                 JUNCTION     0.53     0.53  3413.28     0  00:10        0.53
  1606                 JUNCTION     0.52     0.52  3413.61     0  00:01        0.52
  1607                 JUNCTION     0.52     0.52  3414.43     0  18:03        0.52
  1608                 JUNCTION     0.48     0.48  3415.24     0  01:55        0.48
  1609                 JUNCTION     0.47     0.47  3416.44     0  00:14        0.47
  1610                 JUNCTION     0.34     0.34  3422.22     0  17:22        0.34
  1611                 JUNCTION     0.38     0.38  3423.55     0  03:24        0.38
  1612                 JUNCTION     0.39     0.39  3426.47     0  02:22        0.39
  1613                 JUNCTION     0.38     0.38  3429.35     0  00:17        0.38
  1614                 JUNCTION     0.38     0.38  3432.32     0  15:00        0.38
  1616                 JUNCTION     0.23     0.23  3443.38     0  12:40        0.23
  1617                 JUNCTION     0.26     0.26  3451.41     0  01:06        0.26
  1618                 JUNCTION     0.24     0.24  3460.19     0  06:15        0.24
  1619                 JUNCTION     0.24     0.24  3468.99     0  19:46        0.24
  1620                 JUNCTION     0.27     0.27  3474.62     0  12:53        0.27
  1621                 JUNCTION     0.25     0.25  3477.92     0  19:38        0.25
  1622                 JUNCTION     0.24     0.24  3433.24     0  05:33        0.24
  1623                 JUNCTION     0.17     0.17  3438.71     0  06:18        0.17
  1624                 JUNCTION     0.22     0.22  3439.34     0  04:15        0.22
  1625                 JUNCTION     0.18     0.18  3440.44     0  03:00        0.18
  1626                 JUNCTION     0.18     0.18  3442.00     0  00:28        0.18
  1627                 JUNCTION     0.17     0.17  3443.67     0  00:00        0.17
  1628                 JUNCTION     0.13     0.13  3444.14     0  00:00        0.13
  1629                 JUNCTION     0.12     0.12  3444.64     0  00:00        0.12
  1630                 JUNCTION     0.08     0.08  3445.39     0  00:00        0.08
  1643                 JUNCTION     0.08     0.08  3395.39     0  00:00        0.08
  166                  JUNCTION     0.86     0.86  3333.34     0  09:55        0.86
  1685                 JUNCTION     0.27     0.27  3377.27     0  23:52        0.27
  1712                 JUNCTION     0.12     0.12  3393.56     0  00:06        0.12
  1713                 JUNCTION     0.15     0.15  3390.44     0  00:01        0.15
  1714                 JUNCTION     0.13     0.13  3386.89     0  00:01        0.13
  173                  JUNCTION     0.64     0.64  3332.48     0  19:16        0.64
  177                  JUNCTION     0.39     0.39  3326.69     0  13:40        0.39
  178                  JUNCTION     0.61     0.61  3329.65     0  06:52        0.61
  1788                 JUNCTION     0.10     0.10  3378.07     0  00:00        0.10
  179                  JUNCTION     0.62     0.62  3331.62     0  01:57        0.62
  1815                 JUNCTION     0.33     0.33  3289.41     0  20:01        0.33
  1819                 JUNCTION     0.36     0.36  3295.02     0  06:58        0.36
  1825                 JUNCTION     0.20     0.20  3298.01     0  00:11        0.20
  1826                 JUNCTION     0.25     0.25  3297.34     0  00:11        0.25
  1827                 JUNCTION     0.25     0.25  3297.07     0  00:00        0.25
  1828                 JUNCTION     0.26     0.26  3296.56     0  00:13        0.26
  1829                 JUNCTION     0.30     0.30  3296.18     0  08:03        0.30
  1830                 JUNCTION     0.28     0.28  3295.90     0  08:09        0.28
  1831                 JUNCTION     0.32     0.32  3295.11     0  12:58        0.32
  1832                 JUNCTION     0.31     0.31  3294.56     0  06:59        0.31
  1833                 JUNCTION     0.33     0.33  3294.02     0  00:02        0.33
  1834                 JUNCTION     0.52     0.52  3293.63     0  11:49        0.52
  1835                 JUNCTION     0.33     0.33  3293.39     0  01:26        0.33
  1836                 JUNCTION     0.36     0.36  3292.44     0  23:50        0.36
  1837                 JUNCTION     0.43     0.43  3291.71     0  15:53        0.43
  1838                 JUNCTION     0.36     0.36  3291.10     0  23:52        0.36
  1839                 JUNCTION     0.44     0.44  3290.21     0  03:34        0.44
  1842                 JUNCTION     0.26     0.26  3324.72     0  21:39        0.26
  1843                 JUNCTION     0.16     0.16  3325.90     0  00:02        0.16
  1844                 JUNCTION     0.08     0.08  3334.08     0  00:01        0.08
  1845                 JUNCTION     0.20     0.20  3315.78     0  00:01        0.20
  1846                 JUNCTION     0.15     0.15  3317.21     0  01:45        0.15
  1847                 JUNCTION     0.39     0.39  3324.88     0  11:04        0.39
  1848                 JUNCTION     0.43     0.43  3318.22     0  22:25        0.43
  1849                 JUNCTION     0.43     0.43  3314.82     0  03:54        0.43
  1850                 JUNCTION     0.43     0.43  3310.57     0  17:37        0.43
  1851                 JUNCTION     0.44     0.44  3306.78     0  20:42        0.44
  1852                 JUNCTION     0.41     0.41  3303.10     0  19:31        0.41
  1853                 JUNCTION     0.44     0.44  3302.60     0  17:17        0.44
  1854                 JUNCTION     0.44     0.44  3297.45     0  15:03        0.44
  1855                 JUNCTION     0.60     0.60  3292.32     0  20:47        0.60
  1856                 JUNCTION     0.60     0.60  3290.99     0  02:58        0.60
  1857                 JUNCTION     0.64     0.64  3290.62     0  20:19        0.64
  1858                 JUNCTION     0.61     0.61  3289.52     0  12:19        0.61
  1859                 JUNCTION     0.70     0.70  3288.20     0  00:16        0.70
  1861                 JUNCTION     0.97     0.97  3286.88     0  16:46        0.97
  1862                 JUNCTION     0.79     0.79  3287.55     0  19:19        0.79
  1863                 JUNCTION     0.26     0.26  3312.83     0  02:00        0.26
  1864                 JUNCTION     0.17     0.17  3323.81     0  06:01        0.17
  187                  JUNCTION     0.19     0.19  3314.91     0  01:38        0.19
  188                  JUNCTION     0.14     0.14  3325.32     0  00:02        0.14
  189                  JUNCTION     0.11     0.11  3324.99     0  00:08        0.11
  19                   JUNCTION     0.41     0.41  3294.18     0  02:27        0.41
  1916                 JUNCTION     0.04     0.04  3305.68     0  00:01        0.04
  196                  JUNCTION     0.75     0.75  3341.32     0  04:12        0.75
  197                  JUNCTION     0.74     0.74  3342.41     0  02:43        0.74
  1980                 JUNCTION     0.06     0.06  3337.76     0  00:04        0.06
  200                  JUNCTION     0.06     0.06  3330.83     0  00:00        0.06
  201                  JUNCTION     0.85     0.85  3327.15     0  18:09        0.85
  2010                 JUNCTION     0.05     0.05  3337.39     0  00:00        0.05
  202                  JUNCTION     0.86     0.86  3325.06     0  00:20        0.86
  2022                 JUNCTION     0.63     0.63  3372.10     0  14:38        0.63
  2023                 JUNCTION     0.40     0.40  3370.92     0  14:40        0.40
  2024                 JUNCTION     0.43     0.43  3365.70     0  01:31        0.43
  2025                 JUNCTION     0.43     0.43  3362.31     0  01:20        0.43
  2026                 JUNCTION     0.44     0.44  3359.40     0  21:52        0.44
  2027                 JUNCTION     0.44     0.44  3355.98     0  19:26        0.44
  2028                 JUNCTION     0.48     0.48  3353.25     0  05:41        0.48
  2029                 JUNCTION     0.32     0.32  3349.36     0  04:30        0.32
  203                  JUNCTION     1.01     1.01  3324.36     0  03:18        1.01
  2030                 JUNCTION     0.40     0.40  3336.64     0  00:27        0.40
  2031                 JUNCTION     0.41     0.41  3330.98     0  23:38        0.41
  204                  JUNCTION     1.23     1.23  3321.91     0  04:20        1.23
  205                  JUNCTION     0.56     0.56  3318.91     0  06:28        0.56
  206                  JUNCTION     1.37     1.37  3309.25     0  15:14        1.37
  207                  JUNCTION     0.89     0.89  3308.27     0  16:01        0.89
  209                  JUNCTION     1.09     1.09  3308.11     0  10:04        1.09
  2095                 JUNCTION     0.16     0.16  3295.03     0  10:20        0.16
  2096                 JUNCTION     0.30     0.30  3295.18     0  09:34        0.30
  2097                 JUNCTION     0.08     0.08  3297.33     0  00:00        0.08
  2098                 JUNCTION     0.11     0.11  3297.07     0  00:01        0.11
  2099                 JUNCTION     0.13     0.13  3296.39     0  00:57        0.13
  2100                 JUNCTION     0.13     0.13  3295.69     0  00:59        0.13
  2102                 JUNCTION     0.55     0.55  3293.06     0  12:08        0.55
  2103                 JUNCTION     0.38     0.38  3289.38     0  01:13        0.38
  2121                 JUNCTION     0.15     0.15  3294.15     0  12:46        0.15
  2122                 JUNCTION     0.48     0.48  3288.61     0  11:11        0.48
  2123                 JUNCTION     0.31     0.31  3288.10     0  05:27        0.31
  2125                 JUNCTION     0.41     0.41  3288.58     0  18:50        0.41
  2126                 JUNCTION     0.36     0.36  3287.71     0  18:51        0.36
  2127                 JUNCTION     0.36     0.36  3286.48     0  14:25        0.36
  213                  JUNCTION     1.09     1.09  3306.64     0  13:30        1.09
  2130                 JUNCTION     0.36     0.36  3291.50     0  00:13        0.36
  2136                 JUNCTION     1.04     1.04  3290.82     0  01:25        1.04
  2137                 JUNCTION     0.70     0.70  3295.35     0  11:50        0.70
  2138                 JUNCTION     0.74     0.74  3295.97     0  11:55        0.74
  2139                 JUNCTION     0.31     0.31  3294.42     0  02:01        0.31
  214                  JUNCTION     0.24     0.24  3326.14     0  12:20        0.24
  2140                 JUNCTION     0.31     0.31  3293.27     0  02:12        0.31
  2141                 JUNCTION     0.34     0.34  3292.69     0  00:04        0.34
  2142                 JUNCTION     0.35     0.35  3291.82     0  00:24        0.35
  2143                 JUNCTION     0.37     0.37  3291.01     0  01:10        0.37
  2144                 JUNCTION     0.37     0.37  3290.19     0  02:41        0.37
  2145                 JUNCTION     0.71     0.71  3298.12     0  00:07        0.71
  2148                 JUNCTION     0.06     0.06  3305.28     0  00:00        0.06
  215                  JUNCTION     0.27     0.27  3327.17     0  14:14        0.27
  2151                 JUNCTION     0.70     0.70  3293.18     0  11:50        0.70
  2153                 JUNCTION     0.10     0.10  3294.18     0  17:47        0.10
  2154                 JUNCTION     0.20     0.20  3295.34     0  05:50        0.20
  2155                 JUNCTION     0.13     0.13  3297.87     0  07:28        0.13
  2156                 JUNCTION     0.15     0.15  3298.45     0  02:22        0.15
  2157                 JUNCTION     0.13     0.13  3299.55     0  00:01        0.13
  2158                 JUNCTION     0.07     0.07  3300.87     0  00:00        0.07
  2159                 JUNCTION     0.10     0.10  3300.19     0  00:01        0.10
  2160                 JUNCTION     0.02     0.02  3300.92     0  00:00        0.02
  2161                 JUNCTION     0.08     0.08  3300.73     0  00:00        0.08
  2162                 JUNCTION     0.11     0.11  3300.15     0  00:00        0.11
  2163                 JUNCTION     0.14     0.14  3299.80     0  00:01        0.14
  2164                 JUNCTION     0.16     0.16  3299.21     0  00:02        0.16
  2165                 JUNCTION     0.17     0.17  3298.80     0  00:00        0.17
  2166                 JUNCTION     0.19     0.19  3298.39     0  00:01        0.19
  2167                 JUNCTION     0.20     0.20  3298.00     0  00:05        0.20
  2168                 JUNCTION     0.22     0.22  3297.47     0  00:52        0.22
  2169                 JUNCTION     0.21     0.21  3298.15     0  00:00        0.21
  2170                 JUNCTION     0.21     0.21  3298.80     0  00:01        0.21
  2171                 JUNCTION     0.19     0.19  3299.56     0  00:00        0.19
  2172                 JUNCTION     0.17     0.17  3300.48     0  00:00        0.17
  2173                 JUNCTION     0.13     0.13  3302.09     0  00:00        0.13
  2174                 JUNCTION     0.16     0.16  3301.08     0  00:00        0.16
  2175                 JUNCTION     0.55     0.55  3295.81     0  14:26        0.55
  218                  JUNCTION     0.95     0.95  3329.69     0  22:06        0.95
  2187                 JUNCTION     0.46     0.46  3298.25     0  07:32        0.46
  2198                 JUNCTION     0.06     0.06  3293.61     0  00:00        0.06
  2199                 JUNCTION     0.08     0.08  3292.81     0  00:00        0.08
  22                   JUNCTION     0.32     0.32  3295.98     0  10:47        0.32
  2200                 JUNCTION     0.10     0.10  3291.94     0  00:00        0.10
  2201                 JUNCTION     0.12     0.12  3290.87     0  00:00        0.12
  2202                 JUNCTION     0.14     0.14  3289.92     0  00:00        0.14
  2203                 JUNCTION     0.14     0.14  3289.05     0  00:00        0.14
  2204                 JUNCTION     0.09     0.09  3291.64     0  01:23        0.09
  2205                 JUNCTION     0.08     0.08  3290.71     0  04:45        0.08
  2206                 JUNCTION     0.20     0.20  3288.40     0  07:24        0.20
  2207                 JUNCTION     0.21     0.21  3288.06     0  15:10        0.21
  2210                 JUNCTION     0.30     0.30  3282.41     0  17:49        0.30
  2211                 JUNCTION     0.22     0.22  3286.52     0  13:49        0.22
  2212                 JUNCTION     0.25     0.25  3286.89     0  07:40        0.25
  2214                 JUNCTION     0.68     0.68  3297.19     0  07:13        0.68
  2219                 JUNCTION     0.45     0.45  3298.19     0  00:11        0.45
  2220                 JUNCTION     0.35     0.35  3297.49     0  07:48        0.35
  2221                 JUNCTION     0.26     0.26  3299.59     0  03:59        0.26
  2228                 JUNCTION     0.24     0.24  3298.78     0  07:30        0.24
  2229                 JUNCTION     0.81     0.81  3298.41     0  17:26        0.81
  2230                 JUNCTION     0.55     0.55  3296.38     0  12:05        0.55
  2231                 JUNCTION     0.59     0.59  3296.75     0  12:13        0.59
  2232                 JUNCTION     0.55     0.55  3296.84     0  17:22        0.55
  2233                 JUNCTION     0.53     0.53  3296.98     0  02:27        0.53
  2234                 JUNCTION     0.52     0.52  3297.13     0  07:07        0.52
  2235                 JUNCTION     1.09     1.09  3297.16     0  07:01        1.09
  2236                 JUNCTION     0.64     0.64  3297.18     0  07:14        0.64
  2237                 JUNCTION     0.50     0.50  3297.26     0  15:16        0.50
  2238                 JUNCTION     0.36     0.36  3297.80     0  14:38        0.36
  2239                 JUNCTION     0.25     0.25  3298.36     0  06:47        0.25
  2245                 JUNCTION     0.25     0.25  3282.55     0  07:42        0.25
  2246                 JUNCTION     0.30     0.30  3283.78     0  00:02        0.30
  2247                 JUNCTION     0.41     0.41  3282.72     0  19:32        0.41
  225                  JUNCTION     0.39     0.39  3308.11     0  09:34        0.39
  2253                 JUNCTION     0.52     0.52  3296.04     0  14:22        0.52
  2255                 JUNCTION     0.27     0.27  3286.03     0  17:34        0.27
  2256                 JUNCTION     0.23     0.23  3285.62     0  11:57        0.23
  2257                 JUNCTION     0.23     0.23  3284.83     0  02:52        0.23
  2258                 JUNCTION     0.24     0.24  3284.38     0  12:13        0.24
  2259                 JUNCTION     0.27     0.27  3284.00     0  07:36        0.27
  227                  JUNCTION     0.83     0.83  3334.65     0  16:57        0.83
  2270                 JUNCTION     0.17     0.17  3287.22     0  02:36        0.17
  2274                 JUNCTION     0.23     0.23  3283.09     0  00:45        0.23
  2281                 JUNCTION     0.24     0.24  3283.50     0  10:24        0.24
  2286                 JUNCTION     0.07     0.07  3297.16     0  00:00        0.07
  2287                 JUNCTION     0.62     0.62  3295.12     0  15:03        0.62
  2288                 JUNCTION     0.48     0.48  3295.07     0  14:36        0.48
  2289                 JUNCTION     0.49     0.49  3295.29     0  09:13        0.49
  229                  JUNCTION     0.90     0.90  3327.87     0  17:12        0.90
  2290                 JUNCTION     0.55     0.55  3295.57     0  08:32        0.55
  230                  JUNCTION     1.08     1.08  3329.32     0  21:14        1.08
  2354                 JUNCTION     0.52     0.52  3329.68     0  06:54        0.52
  2355                 JUNCTION     0.33     0.33  3324.42     0  06:55        0.33
  2356                 JUNCTION     0.51     0.51  3317.44     0  20:58        0.51
  2357                 JUNCTION     0.43     0.43  3327.48     0  21:20        0.43
  2358                 JUNCTION     0.54     0.54  3328.79     0  06:54        0.54
  2360                 JUNCTION     0.35     0.35  3308.47     0  18:43        0.35
  2361                 JUNCTION     0.51     0.51  3301.21     0  03:30        0.51
  2362                 JUNCTION     0.48     0.48  3297.43     0  18:48        0.48
  2363                 JUNCTION     0.49     0.49  3294.63     0  00:09        0.49
  2364                 JUNCTION     0.51     0.51  3293.26     0  07:31        0.51
  2365                 JUNCTION     0.49     0.49  3292.39     0  01:03        0.49
  2366                 JUNCTION     0.59     0.59  3290.83     0  15:44        0.59
  2367                 JUNCTION     0.50     0.50  3290.39     0  12:36        0.50
  2368                 JUNCTION     0.56     0.56  3290.10     0  00:52        0.56
  2371                 JUNCTION     2.25     2.25  3289.86     0  23:34        2.25
  2372                 JUNCTION     1.57     1.57  3289.82     0  23:33        1.57
  2373                 JUNCTION     0.62     0.62  3289.51     0  23:36        0.62
  2396                 JUNCTION     0.49     0.49  3299.22     0  18:59        0.49
  2447                 JUNCTION     0.12     0.12  3290.12     0  00:09        0.12
  2459                 JUNCTION     0.08     0.08  3292.78     0  00:10        0.08
  2463                 JUNCTION     0.03     0.03  3300.33     0  00:02        0.03
  2464                 JUNCTION     0.42     0.42  3300.02     0  08:54        0.42
  2465                 JUNCTION     0.45     0.45  3297.85     0  23:06        0.45
  2466                 JUNCTION     0.44     0.44  3298.91     0  23:05        0.44
  2467                 JUNCTION     0.45     0.45  3297.37     0  01:24        0.45
  2468                 JUNCTION     0.46     0.46  3296.18     0  23:08        0.46
  2469                 JUNCTION     0.51     0.51  3295.03     0  08:45        0.51
  2470                 JUNCTION     0.23     0.23  3293.55     0  08:08        0.23
  2477                 JUNCTION     0.37     0.37  3288.03     0  01:12        0.37
  2478                 JUNCTION     0.61     0.61  3289.21     0  09:12        0.61
  2480                 JUNCTION     2.20     2.20  3282.87     0  21:23        2.20
  2481                 JUNCTION     0.46     0.46  3283.35     0  14:23        0.46
  2482                 JUNCTION     0.87     0.87  3284.20     0  11:34        0.87
  2483                 JUNCTION     0.82     0.82  3284.68     0  04:00        0.82
  2484                 JUNCTION     0.46     0.46  3289.72     0  12:14        0.46
  2485                 JUNCTION     0.57     0.57  3289.11     0  17:36        0.57
  2486                 JUNCTION     0.32     0.32  3288.09     0  02:21        0.32
  2487                 JUNCTION     0.83     0.83  3286.86     0  11:36        0.83
  2488                 JUNCTION     0.85     0.85  3286.14     0  21:21        0.85
  2489                 JUNCTION     0.75     0.75  3285.33     0  20:53        0.75
  2534                 JUNCTION     0.82     0.82  3287.79     0  02:24        0.82
  2535                 JUNCTION     0.97     0.97  3287.31     0  20:50        0.97
  2546                 JUNCTION     0.81     0.81  3291.31     0  08:25        0.81
  2547                 JUNCTION     0.84     0.84  3290.99     0  04:54        0.84
  2548                 JUNCTION     0.62     0.62  3290.15     0  00:54        0.62
  2564                 JUNCTION     0.06     0.06  3319.45     0  00:01        0.06
  2575                 JUNCTION     0.23     0.23  3304.53     0  00:23        0.23
  2591                 JUNCTION     0.11     0.11  3307.62     0  00:00        0.11
  2592                 JUNCTION     0.13     0.13  3307.33     0  00:00        0.13
  2593                 JUNCTION     0.14     0.14  3306.67     0  00:02        0.14
  2594                 JUNCTION     0.18     0.18  3306.20     0  06:21        0.18
  2595                 JUNCTION     0.15     0.15  3305.90     0  00:00        0.15
  2596                 JUNCTION     0.20     0.20  3305.06     0  00:03        0.20
  2597                 JUNCTION     0.21     0.21  3304.76     0  00:09        0.21
  2598                 JUNCTION     0.30     0.30  3304.37     0  22:58        0.30
  2599                 JUNCTION     0.15     0.15  3303.74     0  23:01        0.15
  2602                 JUNCTION     0.27     0.27  3302.03     0  06:57        0.27
  2604                 JUNCTION     0.31     0.31  3300.58     0  12:51        0.31
  2612                 JUNCTION     0.07     0.07  3313.71     0  00:00        0.07
  2623                 JUNCTION     0.10     0.10  3312.70     0  00:00        0.10
  2624                 JUNCTION     0.12     0.12  3312.02     0  00:02        0.12
  2629                 JUNCTION     0.14     0.14  3311.16     0  00:02        0.14
  2630                 JUNCTION     0.16     0.16  3310.77     0  00:01        0.16
  2631                 JUNCTION     0.16     0.16  3309.93     0  01:38        0.16
  2634                 JUNCTION     0.12     0.12  3317.61     0  06:03        0.12
  2635                 JUNCTION     0.09     0.09  3318.34     0  00:01        0.09
  2642                 JUNCTION     0.12     0.12  3316.97     0  06:03        0.12
  2643                 JUNCTION     0.13     0.13  3314.34     0  00:44        0.13
  2644                 JUNCTION     0.14     0.14  3311.97     0  00:33        0.14
  2645                 JUNCTION     0.20     0.20  3309.72     0  04:16        0.20
  2646                 JUNCTION     0.21     0.21  3309.28     0  05:13        0.21
  2647                 JUNCTION     0.22     0.22  3308.84     0  01:44        0.22
  2648                 JUNCTION     0.23     0.23  3308.34     0  01:55        0.23
  2649                 JUNCTION     0.25     0.25  3307.91     0  00:08        0.25
  2650                 JUNCTION     0.27     0.27  3307.48     0  06:55        0.27
  2657                 JUNCTION     0.14     0.14  3308.14     0  00:35        0.14
  2658                 JUNCTION     0.15     0.15  3306.67     0  11:05        0.15
  2659                 JUNCTION     0.18     0.18  3306.40     0  01:13        0.18
  2660                 JUNCTION     0.19     0.19  3305.83     0  07:49        0.19
  2665                 JUNCTION     0.21     0.21  3307.19     0  23:54        0.21
  2666                 JUNCTION     0.28     0.28  3304.96     0  19:10        0.28
  2667                 JUNCTION     0.26     0.26  3304.26     0  15:56        0.26
  2668                 JUNCTION     0.27     0.27  3303.07     0  01:58        0.27
  2669                 JUNCTION     0.34     0.34  3301.10     0  12:28        0.34
  2683                 JUNCTION     0.07     0.07  3308.07     0  00:00        0.07
  2691                 JUNCTION     0.88     0.88  3291.50     0  00:52        0.88
  2692                 JUNCTION     0.69     0.69  3292.76     0  08:27        0.69
  2693                 JUNCTION     0.80     0.80  3293.87     0  04:21        0.80
  2694                 JUNCTION     0.76     0.76  3294.73     0  02:05        0.76
  2695                 JUNCTION     0.76     0.76  3295.24     0  00:18        0.76
  2696                 JUNCTION     0.72     0.72  3296.36     0  11:02        0.72
  2697                 JUNCTION     0.77     0.77  3297.24     0  02:59        0.77
  2698                 JUNCTION     0.71     0.71  3298.13     0  06:34        0.71
  2727                 JUNCTION     0.26     0.26  3411.25     0  13:48        0.26
  2752                 JUNCTION     0.22     0.22  3470.63     0  04:32        0.22
  2753                 JUNCTION     0.49     0.49  3433.59     0  17:07        0.49
  2754                 JUNCTION     0.20     0.20  3525.72     0  04:32        0.20
  2755                 JUNCTION     0.16     0.16  3491.18     0  04:32        0.16
  2756                 JUNCTION     0.20     0.20  3432.67     0  23:34        0.20
  2779                 JUNCTION     0.06     0.06  3338.60     0  00:00        0.06
  2780                 JUNCTION     0.09     0.09  3336.16     0  00:00        0.09
  2781                 JUNCTION     0.10     0.10  3334.41     0  00:00        0.10
  2782                 JUNCTION     0.50     0.50  3332.64     0  17:01        0.50
  28                   JUNCTION     0.44     0.44  3293.41     0  03:25        0.44
  2811                 JUNCTION     0.26     0.26  3403.51     0  20:37        0.26
  2812                 JUNCTION     0.26     0.26  3390.42     0  08:24        0.26
  2813                 JUNCTION     0.26     0.26  3376.53     0  02:03        0.26
  2814                 JUNCTION     0.26     0.26  3362.07     0  20:38        0.26
  2815                 JUNCTION     0.30     0.30  3348.90     0  00:00        0.30
  2816                 JUNCTION     0.44     0.44  3338.46     0  14:54        0.44
  2817                 JUNCTION     0.42     0.42  3336.41     0  19:19        0.42
  2818                 JUNCTION     0.46     0.46  3334.00     0  19:19        0.46
  2820                 JUNCTION     0.38     0.38  3331.05     0  01:24        0.38
  2821                 JUNCTION     0.54     0.54  3330.84     0  23:58        0.54
  2861                 JUNCTION     0.30     0.30  3406.39     0  08:32        0.30
  2862                 JUNCTION     0.05     0.05  3402.51     0  00:00        0.05
  2863                 JUNCTION     0.06     0.06  3396.06     0  00:00        0.06
  2864                 JUNCTION     0.07     0.07  3385.07     0  00:00        0.07
  2865                 JUNCTION     0.14     0.14  3373.42     0  06:03        0.14
  2914                 JUNCTION     0.10     0.10  3372.08     0  07:17        0.10
  2915                 JUNCTION     0.10     0.10  3363.41     0  08:30        0.10
  2916                 JUNCTION     0.12     0.12  3355.96     0  00:01        0.12
  2917                 JUNCTION     0.13     0.13  3348.93     0  00:55        0.13
  2918                 JUNCTION     0.15     0.15  3341.50     0  01:26        0.15
  2919                 JUNCTION     0.47     0.47  3340.01     0  09:07        0.47
  294                  JUNCTION     0.73     0.73  3343.52     0  01:00        0.73
  2948                 JUNCTION     0.20     0.20  3654.72     0  01:37        0.20
  2949                 JUNCTION     0.25     0.25  3653.04     0  00:04        0.25
  295                  JUNCTION     0.72     0.72  3344.62     0  01:16        0.72
  2950                 JUNCTION     0.26     0.26  3652.07     0  00:04        0.26
  2951                 JUNCTION     0.27     0.27  3651.25     0  00:17        0.27
  2952                 JUNCTION     0.27     0.27  3650.37     0  00:01        0.27
  2953                 JUNCTION     0.28     0.28  3649.67     0  00:29        0.28
  2954                 JUNCTION     0.32     0.32  3649.04     0  15:19        0.32
  2955                 JUNCTION     0.15     0.15  3648.24     0  05:05        0.15
  2956                 JUNCTION     0.35     0.35  3638.30     0  13:34        0.35
  296                  JUNCTION     0.72     0.72  3345.78     0  00:12        0.72
  2960                 JUNCTION     0.16     0.16  3624.48     0  02:46        0.16
  2961                 JUNCTION     0.17     0.17  3600.80     0  09:59        0.17
  2962                 JUNCTION     0.29     0.29  3628.29     0  13:38        0.29
  2963                 JUNCTION     0.28     0.28  3630.53     0  21:52        0.28
  2964                 JUNCTION     0.28     0.28  3634.29     0  00:17        0.28
  2965                 JUNCTION     0.33     0.33  3634.59     0  01:32        0.33
  2966                 JUNCTION     0.38     0.38  3635.91     0  22:02        0.38
  2967                 JUNCTION     0.36     0.36  3636.77     0  00:16        0.36
  2968                 JUNCTION     0.10     0.10  3638.97     0  00:09        0.10
  2969                 JUNCTION     0.31     0.31  3638.02     0  01:52        0.31
  297                  JUNCTION     0.42     0.42  3327.62     0  06:14        0.42
  2972                 JUNCTION     0.07     0.07  3639.87     0  00:00        0.07
  2979                 JUNCTION     0.11     0.11  3642.21     0  10:35        0.11
  298                  JUNCTION     0.14     0.14  3334.06     0  00:30        0.14
  299                  JUNCTION     0.21     0.21  3335.15     0  02:42        0.21
  2990                 JUNCTION     0.08     0.08  3649.26     0  00:00        0.08
  2991                 JUNCTION     0.18     0.18  3643.50     0  02:25        0.18
  2992                 JUNCTION     0.15     0.15  3644.61     0  00:25        0.15
  2993                 JUNCTION     0.11     0.11  3647.02     0  00:08        0.11
  2994                 JUNCTION     0.11     0.11  3648.06     0  00:12        0.11
  3                    JUNCTION     0.45     0.45  3297.47     0  16:41        0.45
  300                  JUNCTION     0.91     0.91  3329.39     0  18:08        0.91
  301                  JUNCTION     0.16     0.16  3336.68     0  00:00        0.16
  3014                 JUNCTION     0.17     0.17  3300.23     0  21:48        0.17
  3017                 JUNCTION     0.19     0.19  3300.77     0  00:17        0.19
  303                  JUNCTION     1.32     1.32  3340.56     0  06:52        1.32
  304                  JUNCTION     0.46     0.46  3338.01     0  16:01        0.46
  3040                 JUNCTION     0.07     0.07  3307.26     1  00:00        0.07
  3044                 JUNCTION     0.09     0.09  3306.75     0  00:00        0.09
  3045                 JUNCTION     0.07     0.07  3311.07     0  00:00        0.07
  3046                 JUNCTION     0.10     0.10  3309.80     0  00:00        0.10
  3047                 JUNCTION     0.08     0.08  3308.58     0  00:11        0.08
  3048                 JUNCTION     0.17     0.17  3303.81     0  00:00        0.17
  3049                 JUNCTION     0.18     0.18  3303.33     0  00:00        0.18
  3050                 JUNCTION     0.26     0.26  3302.98     0  05:29        0.26
  3051                 JUNCTION     0.24     0.24  3302.88     0  13:43        0.24
  3052                 JUNCTION     0.26     0.26  3300.17     0  03:26        0.26
  3053                 JUNCTION     0.38     0.38  3299.97     0  04:05        0.38
  3054                 JUNCTION     0.36     0.36  3299.89     0  07:50        0.36
  3056                 JUNCTION     0.18     0.18  3298.02     0  00:03        0.18
  306                  JUNCTION     1.13     1.13  3342.07     0  11:23        1.13
  3068                 JUNCTION     0.18     0.18  3304.04     0  00:14        0.18
  307                  JUNCTION     1.12     1.12  3343.76     0  05:37        1.12
  3079                 JUNCTION     0.28     0.28  3304.84     0  02:52        0.28
  308                  JUNCTION     1.11     1.11  3345.45     0  12:51        1.11
  3080                 JUNCTION     0.17     0.17  3304.73     0  02:57        0.17
  3085                 JUNCTION     0.12     0.12  3301.63     0  00:05        0.12
  3089                 JUNCTION     0.17     0.17  3299.23     0  00:00        0.17
  309                  JUNCTION     1.11     1.11  3345.87     0  12:27        1.11
  310                  JUNCTION     0.56     0.56  3352.59     0  23:16        0.56
  311                  JUNCTION     0.10     0.10  3339.34     0  00:00        0.10
  3113                 JUNCTION     0.23     0.23  3303.36     0  03:03        0.23
  3118                 JUNCTION     0.23     0.23  3302.95     0  03:03        0.23
  312                  JUNCTION     0.82     0.82  3358.22     0  15:53        0.82
  3121                 JUNCTION     0.24     0.24  3301.82     0  00:21        0.24
  3123                 JUNCTION     0.24     0.24  3302.41     0  03:16        0.24
  313                  JUNCTION     0.21     0.21  3328.21     0  00:14        0.21
  3131                 JUNCTION     0.26     0.26  3301.09     0  00:17        0.26
  3135                 JUNCTION     0.19     0.19  3297.72     0  00:00        0.19
  3136                 JUNCTION     0.21     0.21  3297.04     0  00:06        0.21
  3137                 JUNCTION     0.22     0.22  3296.35     0  00:00        0.22
  3138                 JUNCTION     0.42     0.42  3295.54     0  21:56        0.42
  314                  JUNCTION     0.24     0.24  3329.84     0  00:02        0.24
  3141                 JUNCTION     0.06     0.06  3305.17     0  00:00        0.06
  3142                 JUNCTION     0.10     0.10  3302.89     0  00:00        0.10
  3143                 JUNCTION     0.12     0.12  3302.03     0  00:01        0.12
  3144                 JUNCTION     0.14     0.14  3301.18     0  00:00        0.14
  3145                 JUNCTION     0.16     0.16  3300.32     0  00:00        0.16
  3146                 JUNCTION     0.17     0.17  3299.46     0  00:00        0.17
  3147                 JUNCTION     0.18     0.18  3298.62     0  00:03        0.18
  3148                 JUNCTION     0.20     0.20  3297.51     0  00:01        0.20
  3149                 JUNCTION     0.20     0.20  3296.43     0  00:00        0.20
  315                  JUNCTION     0.19     0.19  3331.69     0  00:00        0.19
  3150                 JUNCTION     0.32     0.32  3295.48     0  13:39        0.32
  3158                 JUNCTION     0.04     0.04  3291.95     0  00:08        0.04
  3159                 JUNCTION     0.05     0.05  3293.96     0  00:02        0.05
  3161                 JUNCTION     0.26     0.26  3289.16     0  00:11        0.26
  3169                 JUNCTION     0.09     0.09  3299.49     0  00:07        0.09
  3170                 JUNCTION     0.09     0.09  3299.85     0  00:11        0.09
  3171                 JUNCTION     0.69     0.69  3300.09     0  17:00        0.69
  3172                 JUNCTION     0.34     0.34  3300.10     0  00:10        0.34
  3173                 JUNCTION     0.19     0.19  3300.52     0  08:45        0.19
  3174                 JUNCTION     0.07     0.07  3301.86     0  00:00        0.07
  3175                 JUNCTION     0.11     0.11  3301.41     0  00:00        0.11
  3176                 JUNCTION     0.13     0.13  3300.91     0  00:05        0.13
  3177                 JUNCTION     0.15     0.15  3301.02     0  09:13        0.15
  3180                 JUNCTION     1.29     1.29  3287.55     0  11:03        1.29
  3181                 JUNCTION     1.43     1.43  3287.94     0  01:27        1.43
  3182                 JUNCTION     1.47     1.47  3288.22     0  01:26        1.47
  3183                 JUNCTION     1.48     1.48  3288.48     0  01:47        1.48
  3184                 JUNCTION     0.27     0.27  3289.27     0  23:22        0.27
  3185                 JUNCTION     1.41     1.41  3288.75     0  02:00        1.41
  3186                 JUNCTION     1.46     1.46  3289.04     0  21:21        1.46
  3187                 JUNCTION     0.83     0.83  3289.46     0  06:14        0.83
  3188                 JUNCTION     1.06     1.06  3290.43     0  06:11        1.06
  3189                 JUNCTION     0.15     0.15  3302.38     0  08:32        0.15
  3190                 JUNCTION     0.12     0.12  3301.47     0  08:35        0.12
  3191                 JUNCTION     0.21     0.21  3300.07     0  21:07        0.21
  3192                 JUNCTION     0.21     0.21  3298.09     0  00:44        0.21
  3193                 JUNCTION     0.22     0.22  3296.10     0  11:25        0.22
  3194                 JUNCTION     0.20     0.20  3293.94     0  02:18        0.20
  3195                 JUNCTION     0.25     0.25  3290.47     0  15:24        0.25
  3196                 JUNCTION     1.26     1.26  3287.08     0  23:29        1.26
  3197                 JUNCTION     1.18     1.18  3287.08     0  04:25        1.18
  3198                 JUNCTION     0.15     0.15  3289.26     0  23:43        0.15
  3199                 JUNCTION     0.27     0.27  3290.97     0  11:40        0.27
  3200                 JUNCTION     0.17     0.17  3289.47     0  00:05        0.17
  3201                 JUNCTION     0.15     0.15  3290.28     0  00:04        0.15
  3202                 JUNCTION     0.15     0.15  3290.95     0  00:00        0.15
  3203                 JUNCTION     0.13     0.13  3291.59     0  00:00        0.13
  3204                 JUNCTION     0.12     0.12  3292.12     0  00:02        0.12
  3205                 JUNCTION     0.10     0.10  3292.64     0  00:01        0.10
  3206                 JUNCTION     0.07     0.07  3295.85     0  00:00        0.07
  3207                 JUNCTION     0.05     0.05  3298.52     0  00:00        0.05
  3208                 JUNCTION     0.33     0.33  3294.41     0  06:35        0.33
  3209                 JUNCTION     0.29     0.29  3293.30     0  05:00        0.29
  3210                 JUNCTION     0.38     0.38  3291.92     0  23:20        0.38
  3211                 JUNCTION     0.31     0.31  3291.59     0  16:00        0.31
  3215                 JUNCTION     1.04     1.04  3281.97     0  01:54        1.04
  3220                 JUNCTION     0.05     0.05  3296.10     0  00:00        0.05
  3221                 JUNCTION     0.03     0.03  3299.12     0  00:00        0.03
  3242                 JUNCTION     0.18     0.18  3291.67     0  12:27        0.18
  3243                 JUNCTION     0.38     0.38  3292.83     0  06:16        0.38
  3244                 JUNCTION     0.20     0.20  3301.03     0  12:38        0.20
  3245                 JUNCTION     0.16     0.16  3320.52     0  00:00        0.16
  3246                 JUNCTION     0.15     0.15  3325.97     0  08:10        0.15
  3247                 JUNCTION     0.19     0.19  3332.46     0  20:04        0.19
  3248                 JUNCTION     0.17     0.17  3332.91     0  00:00        0.17
  3249                 JUNCTION     0.16     0.16  3335.04     0  00:01        0.16
  3250                 JUNCTION     0.15     0.15  3335.51     0  00:00        0.15
  3259                 JUNCTION     0.05     0.05  3359.53     0  00:00        0.05
  3261                 JUNCTION     0.07     0.07  3353.95     0  00:10        0.07
  3262                 JUNCTION     0.07     0.07  3348.59     0  00:44        0.07
  3263                 JUNCTION     0.13     0.13  3336.42     0  00:00        0.13
  3266                 JUNCTION     0.15     0.15  3331.72     0  20:05        0.15
  3267                 JUNCTION     0.15     0.15  3325.97     0  18:39        0.15
  3268                 JUNCTION     0.22     0.22  3307.35     0  02:17        0.22
  3269                 JUNCTION     0.21     0.21  3315.53     0  01:40        0.21
  327                  JUNCTION     0.33     0.33  3409.73     0  00:42        0.33
  3276                 JUNCTION     0.21     0.21  3310.26     0  08:48        0.21
  3305                 JUNCTION     0.26     0.26  3294.79     0  07:53        0.26
  3306                 JUNCTION     0.23     0.23  3299.33     0  01:26        0.23
  331                  JUNCTION     0.19     0.19  3408.31     0  21:29        0.19
  3313                 JUNCTION     0.33     0.33  3293.24     0  00:05        0.33
  3378                 JUNCTION     0.05     0.05  3325.05     0  00:00        0.05
  3379                 JUNCTION     0.08     0.08  3322.08     0  00:00        0.08
  3380                 JUNCTION     0.11     0.11  3318.99     0  00:00        0.11
  3381                 JUNCTION     0.14     0.14  3317.38     0  00:00        0.14
  3382                 JUNCTION     0.09     0.09  3315.67     0  00:00        0.09
  3386                 JUNCTION     0.26     0.26  3308.43     0  01:17        0.26
  3387                 JUNCTION     0.27     0.27  3305.86     0  00:42        0.27
  3388                 JUNCTION     0.19     0.19  3303.12     0  02:48        0.19
  3393                 JUNCTION     0.58     0.58  3286.22     0  00:25        0.58
  3394                 JUNCTION     0.21     0.21  3288.68     0  21:03        0.21
  3395                 JUNCTION     0.36     0.36  3290.33     0  21:03        0.36
  3396                 JUNCTION     0.32     0.32  3292.02     0  16:48        0.32
  3397                 JUNCTION     1.14     1.14  3283.29     0  04:14        1.14
  3398                 JUNCTION     1.11     1.11  3284.01     0  11:16        1.11
  3399                 JUNCTION     1.11     1.11  3284.75     0  11:15        1.11
  34                   JUNCTION     0.32     0.32  3294.78     0  00:27        0.32
  3400                 JUNCTION     1.10     1.10  3285.49     0  11:15        1.10
  3401                 JUNCTION     1.11     1.11  3286.25     0  10:31        1.11
  3403                 JUNCTION     0.30     0.30  3284.72     0  18:38        0.30
  3404                 JUNCTION     0.61     0.61  3285.74     0  18:37        0.61
  3405                 JUNCTION     0.47     0.47  3286.31     0  16:28        0.47
  3406                 JUNCTION     0.42     0.42  3286.97     0  06:19        0.42
  3407                 JUNCTION     0.20     0.20  3287.67     0  04:49        0.20
  3408                 JUNCTION     0.21     0.21  3288.34     0  06:46        0.21
  3409                 JUNCTION     0.20     0.20  3289.00     0  00:08        0.20
  3411                 JUNCTION     0.58     0.58  3304.67     0  14:03        0.58
  3412                 JUNCTION     0.05     0.05  3307.05     0  00:00        0.05
  342                  JUNCTION     0.18     0.18  3397.68     0  11:13        0.18
  3422                 JUNCTION     0.46     0.46  3321.96     0  16:36        0.46
  3423                 JUNCTION     0.36     0.36  3321.27     0  21:07        0.36
  3424                 JUNCTION     0.25     0.25  3316.35     0  03:45        0.25
  3427                 JUNCTION     0.20     0.20  3296.70     0  06:35        0.20
  3428                 JUNCTION     0.39     0.39  3299.39     0  21:21        0.39
  3429                 JUNCTION     1.91     1.91  3281.13     0  03:38        1.91
  3434                 JUNCTION     0.28     0.28  3339.28     0  09:52        0.28
  3435                 JUNCTION     0.28     0.28  3331.28     0  14:35        0.28
  3436                 JUNCTION     0.44     0.44  3322.91     0  08:16        0.44
  3462                 JUNCTION     0.07     0.07  3344.40     0  00:00        0.07
  3464                 JUNCTION     0.36     0.36  3369.40     0  17:45        0.36
  3465                 JUNCTION     0.32     0.32  3362.78     0  03:15        0.32
  3479                 JUNCTION     0.43     0.43  3353.66     0  16:21        0.43
  3480                 JUNCTION     0.48     0.48  3351.31     0  17:09        0.48
  3481                 JUNCTION     0.27     0.27  3348.70     0  01:53        0.27
  3482                 JUNCTION     0.28     0.28  3347.48     0  00:01        0.28
  3483                 JUNCTION     0.31     0.31  3346.16     0  09:12        0.31
  3484                 JUNCTION     0.18     0.18  3344.68     0  19:18        0.18
  3485                 JUNCTION     0.06     0.06  3323.01     0  00:00        0.06
  3486                 JUNCTION     0.21     0.21  3320.85     0  03:00        0.21
  3487                 JUNCTION     0.11     0.11  3319.48     0  00:03        0.11
  3488                 JUNCTION     0.21     0.21  3316.92     0  09:17        0.21
  3489                 JUNCTION     0.31     0.31  3317.52     0  17:35        0.31
  3490                 JUNCTION     0.19     0.19  3324.66     0  09:16        0.19
  3491                 JUNCTION     0.18     0.18  3334.39     0  14:25        0.18
  3492                 JUNCTION     0.18     0.18  3338.12     0  23:13        0.18
  3495                 JUNCTION     0.11     0.11  3320.75     0  03:01        0.11
  353                  JUNCTION     0.36     0.36  3381.08     0  22:22        0.36
  3576                 JUNCTION     0.14     0.14  3342.16     0  00:00        0.14
  3584                 JUNCTION     0.09     0.09  3342.74     0  00:00        0.09
  3585                 JUNCTION     0.14     0.14  3341.74     0  00:00        0.14
  3605                 JUNCTION     0.16     0.16  3340.71     0  00:01        0.16
  3606                 JUNCTION     0.20     0.20  3338.27     0  00:04        0.20
  3607                 JUNCTION     0.19     0.19  3339.29     0  00:04        0.19
  3608                 JUNCTION     0.17     0.17  3340.24     0  00:01        0.17
  3632                 JUNCTION     0.24     0.24  3337.41     0  01:29        0.24
  3639                 JUNCTION     0.13     0.13  3339.60     0  00:16        0.13
  3640                 JUNCTION     0.10     0.10  3341.37     0  00:01        0.10
  3641                 JUNCTION     0.06     0.06  3345.28     0  00:00        0.06
  3642                 JUNCTION     0.09     0.09  3343.21     0  00:00        0.09
  3647                 JUNCTION     0.16     0.16  3336.61     0  04:26        0.16
  3658                 JUNCTION     0.14     0.14  3482.56     0  00:00        0.14
  3659                 JUNCTION     0.16     0.16  3482.14     0  00:25        0.16
  366                  JUNCTION     0.34     0.34  3380.07     0  18:00        0.34
  3660                 JUNCTION     0.16     0.16  3481.49     0  00:03        0.16
  3661                 JUNCTION     0.19     0.19  3480.97     0  00:10        0.19
  3662                 JUNCTION     0.20     0.20  3479.94     0  00:00        0.20
  3663                 JUNCTION     0.05     0.05  3478.20     0  00:00        0.05
  3664                 JUNCTION     0.07     0.07  3478.07     0  00:00        0.07
  3665                 JUNCTION     0.26     0.26  3476.89     0  05:41        0.26
  3666                 JUNCTION     0.08     0.08  3476.71     0  00:00        0.08
  3667                 JUNCTION     0.26     0.26  3475.83     0  00:00        0.26
  3668                 JUNCTION     0.09     0.09  3476.30     0  00:02        0.09
  3669                 JUNCTION     0.13     0.13  3475.67     0  00:16        0.13
  3670                 JUNCTION     0.10     0.10  3477.74     0  00:00        0.10
  3672                 JUNCTION     0.12     0.12  3476.38     0  00:00        0.12
  3673                 JUNCTION     0.33     0.33  3474.58     0  16:05        0.33
  3674                 JUNCTION     0.34     0.34  3473.81     0  00:04        0.34
  3675                 JUNCTION     0.14     0.14  3474.86     0  00:00        0.14
  3678                 JUNCTION     0.07     0.07  3477.02     0  00:00        0.07
  3679                 JUNCTION     0.45     0.45  3472.75     0  12:48        0.45
  3680                 JUNCTION     0.20     0.20  3473.50     0  00:02        0.20
  3682                 JUNCTION     0.12     0.12  3474.42     0  00:00        0.12
  3683                 JUNCTION     0.10     0.10  3475.89     0  00:01        0.10
  3688                 JUNCTION     0.21     0.21  3478.91     0  11:27        0.21
  374                  JUNCTION     0.40     0.40  3373.37     0  22:20        0.40
  375                  JUNCTION     0.28     0.28  3377.78     0  11:02        0.28
  376                  JUNCTION     0.41     0.41  3379.11     0  11:00        0.41
  3761                 JUNCTION     0.25     0.25  3449.16     0  23:41        0.25
  3763                 JUNCTION     0.21     0.21  3478.34     0  08:43        0.21
  3773                 JUNCTION     0.40     0.40  3467.89     0  03:15        0.40
  3774                 JUNCTION     0.40     0.40  3469.07     0  12:06        0.40
  3778                 JUNCTION     0.22     0.22  3463.88     0  16:28        0.22
  3779                 JUNCTION     0.48     0.48  3465.37     0  08:54        0.48
  378                  JUNCTION     0.39     0.39  3373.01     0  05:10        0.39
  3780                 JUNCTION     0.41     0.41  3466.61     0  03:15        0.41
  3789                 JUNCTION     0.45     0.45  3472.46     0  03:02        0.45
  3790                 JUNCTION     0.43     0.43  3471.42     0  16:31        0.43
  3791                 JUNCTION     0.52     0.52  3470.37     0  04:55        0.52
  3792                 JUNCTION     0.20     0.20  3473.59     0  00:01        0.20
  3793                 JUNCTION     0.19     0.19  3477.24     0  05:12        0.19
  3795                 JUNCTION     0.31     0.31  3405.66     0  21:17        0.31
  38                   JUNCTION     0.36     0.36  3292.53     0  09:16        0.36
  3808                 JUNCTION     0.24     0.24  3440.13     0  10:42        0.24
  3814                 JUNCTION     0.26     0.26  3419.29     0  10:42        0.26
  3815                 JUNCTION     0.46     0.46  3441.75     0  08:04        0.46
  3823                 JUNCTION     0.06     0.06  3404.26     0  00:01        0.06
  3824                 JUNCTION     0.08     0.08  3403.18     0  00:09        0.08
  3825                 JUNCTION     0.37     0.37  3402.74     0  03:42        0.37
  3826                 JUNCTION     0.32     0.32  3396.48     0  21:18        0.32
  3827                 JUNCTION     0.25     0.25  3392.25     0  17:40        0.25
  3828                 JUNCTION     0.27     0.27  3385.56     0  23:12        0.27
  3829                 JUNCTION     0.07     0.07  3486.23     0  00:00        0.07
  3830                 JUNCTION     0.10     0.10  3484.44     0  00:02        0.10
  3831                 JUNCTION     0.13     0.13  3483.85     0  00:00        0.13
  387                  JUNCTION     0.38     0.38  3371.89     0  18:38        0.38
  3877                 JUNCTION     0.19     0.19  3429.46     0  18:00        0.19
  3895                 JUNCTION     0.11     0.11  3478.21     0  00:01        0.11
  3896                 JUNCTION     0.22     0.22  3477.84     0  23:14        0.22
  39                   JUNCTION     0.29     0.29  3291.66     0  18:28        0.29
  3906                 JUNCTION     0.20     0.20  3471.94     0  03:54        0.20
  3907                 JUNCTION     0.15     0.15  3299.69     0  00:11        0.15
  3908                 JUNCTION     0.15     0.15  3300.74     0  00:09        0.15
  3909                 JUNCTION     0.13     0.13  3302.03     0  00:01        0.13
  3911                 JUNCTION     0.08     0.08  3303.83     0  00:00        0.08
  3913                 JUNCTION     0.11     0.11  3302.74     0  00:00        0.11
  3915                 JUNCTION     0.62     0.62  3289.88     0  20:46        0.62
  3918                 JUNCTION     0.32     0.32  3292.02     0  16:47        0.32
  3922                 JUNCTION     0.13     0.13  3334.36     0  00:00        0.13
  3923                 JUNCTION     0.09     0.09  3337.59     0  00:00        0.09
  3941                 JUNCTION     0.13     0.13  3457.02     0  00:21        0.13
  3942                 JUNCTION     0.12     0.12  3457.64     0  00:05        0.12
  3943                 JUNCTION     0.09     0.09  3458.28     0  00:03        0.09
  3949                 JUNCTION     0.10     0.10  3479.03     0  00:00        0.10
  3950                 JUNCTION     0.06     0.06  3480.05     0  00:00        0.06
  3951                 JUNCTION     0.17     0.17  3478.76     0  00:07        0.17
  3952                 JUNCTION     0.13     0.13  3479.00     0  05:37        0.13
  3958                 JUNCTION     0.43     0.43  3411.69     0  06:18        0.43
  3959                 JUNCTION     0.46     0.46  3399.18     0  02:00        0.46
  3960                 JUNCTION     0.48     0.48  3400.60     0  20:37        0.48
  3961                 JUNCTION     0.49     0.49  3401.81     0  06:45        0.49
  3962                 JUNCTION     0.48     0.48  3402.98     0  14:22        0.48
  3963                 JUNCTION     0.44     0.44  3404.54     0  05:22        0.44
  3964                 JUNCTION     0.44     0.44  3406.06     0  01:41        0.44
  3965                 JUNCTION     0.41     0.41  3408.11     0  01:33        0.41
  3966                 JUNCTION     0.09     0.09  3395.51     0  00:00        0.09
  397                  JUNCTION     0.44     0.44  3370.46     0  00:28        0.44
  3971                 JUNCTION     0.06     0.06  3458.53     0  00:00        0.06
  3973                 JUNCTION     0.09     0.09  3300.50     0  00:00        0.09
  3974                 JUNCTION     0.16     0.16  3299.34     0  00:00        0.16
  3975                 JUNCTION     0.27     0.27  3298.28     0  07:58        0.27
  3978                 JUNCTION     0.10     0.10  3479.97     0  02:40        0.10
  3979                 JUNCTION     0.13     0.13  3480.13     0  05:31        0.13
  398                  JUNCTION     0.40     0.40  3371.40     0  11:14        0.40
  399                  JUNCTION     0.45     0.45  3370.12     0  00:29        0.45
  4024                 JUNCTION     0.46     0.46  3307.75     0  02:13        0.46
  4025                 JUNCTION     0.40     0.40  3317.65     0  08:51        0.40
  4026                 JUNCTION     0.46     0.46  3320.46     0  18:13        0.46
  4027                 JUNCTION     0.31     0.31  3332.45     0  05:56        0.31
  4028                 JUNCTION     0.37     0.37  3345.81     0  14:01        0.37
  4029                 JUNCTION     0.50     0.50  3348.00     0  04:06        0.50
  4030                 JUNCTION     0.46     0.46  3350.59     0  13:29        0.46
  4031                 JUNCTION     0.35     0.35  3364.11     0  07:04        0.35
  4032                 JUNCTION     0.30     0.30  3383.50     0  21:50        0.30
  4033                 JUNCTION     0.59     0.59  3385.76     0  22:42        0.59
  4034                 JUNCTION     0.53     0.53  3387.58     0  00:34        0.53
  4035                 JUNCTION     0.33     0.33  3399.33     0  00:46        0.33
  4036                 JUNCTION     0.35     0.35  3414.35     0  00:46        0.35
  4037                 JUNCTION     0.46     0.46  3420.31     0  07:03        0.46
  4038                 JUNCTION     0.46     0.46  3421.38     0  12:00        0.46
  4039                 JUNCTION     0.31     0.31  3439.86     0  01:47        0.31
  4040                 JUNCTION     0.31     0.31  3454.96     0  10:16        0.31
  4041                 JUNCTION     0.31     0.31  3471.55     0  10:16        0.31
  4042                 JUNCTION     0.35     0.35  3480.35     0  02:59        0.35
  4043                 JUNCTION     0.48     0.48  3486.04     0  01:21        0.48
  4044                 JUNCTION     0.45     0.45  3491.57     0  11:05        0.45
  4045                 JUNCTION     0.50     0.50  3495.50     0  19:16        0.50
  4046                 JUNCTION     0.31     0.31  3512.43     0  09:43        0.31
  4047                 JUNCTION     0.32     0.32  3527.52     0  23:11        0.32
  4048                 JUNCTION     0.59     0.59  3530.34     0  17:28        0.59
  4049                 JUNCTION     0.52     0.52  3532.77     0  05:14        0.52
  4063                 JUNCTION     0.23     0.23  3288.93     0  21:33        0.23
  4064                 JUNCTION     0.87     0.87  3289.93     0  04:14        0.87
  4065                 JUNCTION     0.68     0.68  3290.95     0  04:06        0.68
  4066                 JUNCTION     0.66     0.66  3292.80     0  00:07        0.66
  4067                 JUNCTION     0.48     0.48  3297.65     0  01:08        0.48
  4068                 JUNCTION     0.70     0.70  3298.86     0  10:54        0.70
  4069                 JUNCTION     0.64     0.64  3300.76     0  00:10        0.64
  4070                 JUNCTION     0.62     0.62  3302.41     0  00:10        0.62
  4071                 JUNCTION     0.57     0.57  3303.33     0  00:03        0.57
  4072                 JUNCTION     0.53     0.53  3304.15     0  16:34        0.53
  4073                 JUNCTION     0.61     0.61  3304.32     0  07:02        0.61
  4077                 JUNCTION     0.06     0.06  3425.86     0  00:00        0.06
  4084                 JUNCTION     0.14     0.14  3479.99     0  00:00        0.14
  4085                 JUNCTION     0.11     0.11  3481.18     0  00:00        0.11
  4086                 JUNCTION     0.08     0.08  3482.17     0  00:00        0.08
  4087                 JUNCTION     0.10     0.10  3478.90     0  00:00        0.10
  410                  JUNCTION     0.50     0.50  3369.45     0  11:15        0.50
  4106                 JUNCTION     0.80     0.80  3287.45     0  19:41        0.80
  4107                 JUNCTION     0.12     0.12  3291.08     0  00:24        0.12
  4108                 JUNCTION     6.14     6.14  3291.14     0  07:05        6.14
  4110                 JUNCTION     0.10     0.10  3285.34     0  03:18        0.10
  4111                 JUNCTION     0.11     0.11  3286.65     0  06:39        0.11
  4112                 JUNCTION     0.08     0.08  3287.72     0  00:00        0.08
  4184                 JUNCTION     0.16     0.16  3618.65     0  22:41        0.16
  4185                 JUNCTION     0.16     0.16  3609.87     0  03:58        0.16
  4194                 JUNCTION     0.03     0.03  3370.27     0  00:00        0.03
  42                   JUNCTION     0.33     0.33  3293.59     0  00:00        0.33
  421                  JUNCTION     0.23     0.23  3368.64     0  08:24        0.23
  422                  JUNCTION     0.46     0.46  3361.16     0  16:12        0.46
  4221                 JUNCTION     0.20     0.20  3424.24     0  06:05        0.20
  4222                 JUNCTION     0.22     0.22  3428.93     0  12:36        0.22
  4223                 JUNCTION     0.23     0.23  3429.89     0  14:51        0.23
  423                  JUNCTION     0.96     0.96  3361.16     0  16:14        0.96
  4232                 JUNCTION     0.38     0.38  3412.46     0  20:44        0.38
  424                  JUNCTION     0.72     0.72  3366.67     0  08:07        0.72
  425                  JUNCTION     0.84     0.84  3370.39     0  08:05        0.84
  426                  JUNCTION     0.80     0.80  3374.05     0  08:04        0.80
  427                  JUNCTION     0.71     0.71  3375.09     0  08:03        0.71
  4278                 JUNCTION     0.16     0.16  3313.16     0  21:27        0.16
  428                  JUNCTION     0.51     0.51  3384.06     0  08:03        0.51
  429                  JUNCTION     1.33     1.33  3385.28     0  01:49        1.33
  4293                 JUNCTION     0.15     0.15  3294.02     0  14:27        0.15
  4294                 JUNCTION     0.15     0.15  3293.02     0  13:03        0.15
  4295                 JUNCTION     0.15     0.15  3295.37     0  00:02        0.15
  430                  JUNCTION     1.33     1.33  3385.68     0  23:44        1.33
  4303                 JUNCTION     0.49     0.49  3296.55     0  07:15        0.49
  4307                 JUNCTION     0.17     0.17  3291.84     0  11:25        0.17
  4308                 JUNCTION     0.30     0.30  3292.95     0  12:23        0.30
  431                  JUNCTION     1.32     1.32  3386.07     0  04:38        1.32
  4310                 JUNCTION     0.27     0.27  3294.16     0  00:00        0.27
  4311                 JUNCTION     0.25     0.25  3295.50     0  02:27        0.25
  4313                 JUNCTION     0.24     0.24  3296.80     0  07:40        0.24
  4314                 JUNCTION     0.22     0.22  3298.06     0  14:26        0.22
  4318                 JUNCTION     0.20     0.20  3299.04     0  20:38        0.20
  4319                 JUNCTION     0.11     0.11  3307.18     0  16:16        0.11
  432                  JUNCTION     1.32     1.32  3386.39     0  23:22        1.32
  433                  JUNCTION     1.24     1.24  3386.60     0  08:16        1.24
  434                  JUNCTION     1.28     1.28  3386.80     0  23:20        1.28
  4351                 JUNCTION     0.30     0.30  3440.58     0  06:07        0.30
  4352                 JUNCTION     0.29     0.29  3443.90     0  09:24        0.29
  4353                 JUNCTION     0.28     0.28  3444.76     0  00:50        0.28
  4389                 JUNCTION     0.38     0.38  3402.97     0  08:42        0.38
  4390                 JUNCTION     0.31     0.31  3404.05     0  20:59        0.31
  4391                 JUNCTION     0.30     0.30  3406.67     0  20:59        0.30
  4392                 JUNCTION     0.29     0.29  3407.80     0  20:59        0.29
  4416                 JUNCTION     0.18     0.18  3307.89     0  04:23        0.18
  4419                 JUNCTION     0.07     0.07  3318.09     0  02:03        0.07
  442                  JUNCTION     0.15     0.15  3434.51     0  00:00        0.15
  4420                 JUNCTION     0.10     0.10  3319.00     0  01:11        0.10
  4424                 JUNCTION     0.32     0.32  3597.96     0  06:22        0.32
  4425                 JUNCTION     0.16     0.16  3596.95     0  15:44        0.16
  4426                 JUNCTION     5.68     5.68  3298.59     0  02:54        5.68
  4433                 JUNCTION     0.03     0.03  3294.99     0  00:02        0.03
[...]
  4450                    1.00   0.00  0.00  0.00  0.00  1.00  0.00  0.00  1.00  0.00
  4456                    1.00   0.00  0.00  0.00  1.00  0.00  0.00  0.00  1.00  0.00
  4458                    1.00   0.00  0.00  0.00  1.00  0.00  0.00  0.00  1.00  0.00
  4460                    1.00   0.00  0.00  0.00  1.00  0.00  0.00  0.00  1.00  0.00
  4462                    1.00   0.00  0.00  0.00  0.00  1.00  0.00  0.00  0.00  0.00
  4464                    1.00   0.00  0.00  0.00  0.00  1.00  0.00  0.00  1.00  0.00
  4469                    1.00   0.00  0.00  0.00  0.00  1.00  0.00  0.00  0.00  0.00
  4472                    1.00   0.00  0.00  0.00  1.00  0.00  0.00  0.00  0.00  0.00
  4475                    1.00   0.00  0.00  0.00  0.00  1.00  0.00  0.00  1.00  0.00
  4476                    1.00   0.00  0.00  0.00  1.00  0.00  0.00  0.00  1.00  0.00
  4479                    1.00   0.00  0.00  0.00  1.00  0.00  0.00  0.00  0.00  0.00
  451                     1.00   0.00  0.00  0.00  0.00  1.00  0.00  0.00  1.00  0.00
  4520                    1.00   0.00  0.00  0.00  0.00  1.00  0.00  0.00  1.00  0.00
  4521                    1.00   0.00  0.00  0.00  0.00  1.00  0.00  0.00  1.00  0.00
  4522                    1.00   0.00  0.00  0.00  0.00  1.00  0.00  0.00  1.00  0.00
  4563                    1.00   0.00  0.00  0.00  0.00  1.00  0.00  0.00  1.00  0.00
  4564                    1.00   0.00  0.00  0.00  0.00  1.00  0.00  0.00  1.00  0.00
  4565                    1.00   0.00  0.00  0.00  0.00  1.00  0.00  0.00  1.00  0.00
  4566                    1.00   0.00  0.00  0.00  0.00  0.00  0.00  1.00  0.00  0.00
  458                     1.00   0.00  0.00  0.00  0.00  1.00  0.00  0.00  1.00  0.00
  4588                    1.00   0.00  0.00  0.00  1.00  0.00  0.00  0.00  1.00  0.00
  4589                    1.00   0.00  0.00  0.00  1.00  0.00  0.00  0.00  0.00  0.00
  4592                    1.00   0.00  0.00  0.00  0.00  1.00  0.00  0.00  1.00  0.00
  4593                    1.00   0.00  0.00  0.00  0.00  1.00  0.00  0.00  0.00  0.00
  4594                    1.00   0.00  0.00  0.00  1.00  0.00  0.00  0.00  0.00  0.00
  4599                    1.00   0.00  0.00  0.00  1.00  0.00  0.00  0.00  1.00  0.00
  46                      1.00   0.00  0.00  0.00  0.00  1.00  0.00  0.00  0.00  0.00
  4628                    1.00   0.00  0.00  0.00  1.00  0.00  0.00  0.00  1.00  0.00
  4629                    1.00   0.00  0.00  0.00  1.00  0.00  0.00  0.00  0.00  0.00
  4630                    1.00   0.00  0.00  0.00  1.00  0.00  0.00  0.00  1.00  0.00
  4631                    1.00   0.00  0.00  0.00  1.00  0.00  0.00  0.00  1.00  0.00
  4632                    1.00   0.00  0.00  0.00  1.00  0.00  0.00  0.00  1.00  0.00
  4633                    1.00   0.00  0.00  0.00  1.00  0.00  0.00  0.00  1.00  0.00
  4634                    1.00   0.00  0.00  0.00  1.00  0.00  0.00  0.00  1.00  0.00
  4636                    1.00   0.00  0.00  0.00  0.00  1.00  0.00  0.00  0.00  0.00
  4643                    1.00   0.00  0.00  0.00  0.00  1.00  0.00  0.00  1.00  0.00
  4644                    1.00   0.00  0.00  0.00  0.00  1.00  0.00  0.00  0.00  0.00
  4645                    1.00   0.00  0.00  0.00  0.00  1.00  0.00  0.00  1.00  0.00
  4646                    1.00   0.00  0.00  0.00  0.00  1.00  0.00  0.00  1.00  0.00
  4647                    1.00   0.00  0.00  0.00  0.00  1.00  0.00  0.00  0.00  0.00
  4648                    1.00   0.00  0.00  0.00  1.00  0.00  0.00  0.00  0.00  0.00
  4649                    1.00   0.00  0.00  0.00  1.00  0.00  0.00  0.00  1.00  0.00
  465                     1.00   0.00  0.00  0.00  1.00  0.00  0.00  0.00  1.00  0.00
  4655                    1.00   0.00  0.00  0.00  1.00  0.00  0.00  0.00  1.00  0.00
  4660                    1.00   0.00  0.00  0.00  1.00  0.00  0.00  0.00  0.00  0.00
  4666                    1.00   0.00  0.00  0.00  1.00  0.00  0.00  0.00  1.00  0.00
  4667                    1.00   0.00  0.00  0.00  0.00  1.00  0.00  0.00  0.00  0.00
  4668                    1.00   0.00  0.00  0.00  1.00  0.00  0.00  0.00  1.00  0.00
  4669                    1.00   0.00  0.00  0.00  0.00  1.00  0.00  0.00  0.00  0.00
  4670                    1.00   0.00  0.00  0.00  0.00  1.00  0.00  0.00  1.00  0.00
  4671                    1.00   0.00  0.00  0.00  0.00  1.00  0.00  0.00  1.00  0.00
  4672                    1.00   0.00  0.00  0.00  0.00  1.00  0.00  0.00  1.00  0.00
  4673                    1.00   0.00  0.00  0.00  0.00  1.00  0.00  0.00  0.00  0.00
  4674                    1.00   0.00  0.00  0.00  1.00  0.00  0.00  0.00  1.00  0.00
  4675                    1.00   0.00  0.00  0.00  1.00  0.00  0.00  0.00  1.00  0.00
  4681                    1.00   0.00  0.00  0.00  1.00  0.00  0.00  0.00  0.00  0.00
  4682                    1.00   0.00  0.00  0.00  1.00  0.00  0.00  0.00  1.00  0.00
  4683                    1.00   0.00  0.00  0.00  1.00  0.00  0.00  0.00  1.00  0.00
  4684                    1.00   0.00  0.00  0.00  1.00  0.00  0.00  0.00  1.00  0.00
  4685                    1.00   0.00  0.00  0.00  1.00  0.00  0.00  0.00  1.00  0.00
  4686                    1.00   0.00  0.00  0.00  1.00  0.00  0.00  0.00  1.00  0.00
  4687                    1.00   0.00  0.00  0.00  1.00  0.00  0.00  0.00  1.00  0.00
  4688                    1.00   0.00  0.00  0.00  1.00  0.00  0.00  0.00  1.00  0.00
  4689                    1.00   0.00  0.00  0.00  1.00  0.00  0.00  0.00  1.00  0.00
  47                      1.00   0.00  0.00  0.00  1.00  0.00  0.00  0.00  1.00  0.00
  472                     1.00   0.00  0.00  0.00  0.00  1.00  0.00  0.00  1.00  0.00
  473                     1.00   0.00  0.00  0.00  0.00  1.00  0.00  0.00  0.00  0.00
  474                     1.00   0.00  0.00  0.00  1.00  0.00  0.00  0.00  0.00  0.00
  475                     1.00   0.00  0.00  0.00  1.00  0.00  0.00  0.00  0.00  0.00
  476                     1.00   0.00  0.00  0.00  1.00  0.00  0.00  0.00  0.00  0.00
  477                     1.00   0.00  0.00  0.00  0.00  1.00  0.00  0.00  1.00  0.00
  478                     1.00   0.00  0.00  0.00  1.00  0.00  0.00  0.00  0.00  0.00
  479                     1.00   0.00  0.00  0.00  1.00  0.00  0.00  0.00  0.00  0.00
  480                     1.00   0.00  0.00  0.00  1.00  0.00  0.00  0.00  1.00  0.00
  481                     1.00   0.00  0.00  0.00  1.00  0.00  0.00  0.00  0.00  0.00
  482                     1.00   0.00  0.00  0.00  1.00  0.00  0.00  0.00  1.00  0.00
  483                     1.00   0.00  0.00  0.00  1.00  0.00  0.00  0.00  1.00  0.00
  484                     1.00   0.00  0.00  0.00  1.00  0.00  0.00  0.00  1.00  0.00
  485                     1.00   0.00  0.00  0.00  0.00  1.00  0.00  0.00  0.00  0.00
  488                     1.00   0.00  0.00  0.00  1.00  0.00  0.00  0.00  1.00  0.00
  499                     1.00   0.00  0.00  0.00  1.00  0.00  0.00  0.00  1.00  0.00
  500                     1.00   0.00  0.00  0.00  1.00  0.00  0.00  0.00  0.00  0.00
  501                     1.00   0.00  0.00  0.00  1.00  0.00  0.00  0.00  1.00  0.00
  503                     1.00   0.00  0.00  0.00  1.00  0.00  0.00  0.00  0.00  0.00
  513                     1.00   0.00  0.00  0.00  1.00  0.00  0.00  0.00  1.00  0.00
  514                     1.00   0.00  0.00  0.00  1.00  0.00  0.00  0.00  1.00  0.00
  523                     1.00   0.00  0.00  0.00  1.00  0.00  0.00  0.00  0.00  0.00
  528                     1.00   0.00  0.00  0.00  1.00  0.00  0.00  0.00  0.00  0.00
  529                     1.00   0.00  0.00  0.00  1.00  0.00  0.00  0.00  1.00  0.00
  531                     1.00   0.00  0.00  0.00  1.00  0.00  0.00  0.00  1.00  0.00
  532                     1.00   0.00  0.00  0.00  1.00  0.00  0.00  0.00  1.00  0.00
  54                      1.00   0.00  0.00  0.00  1.00  0.00  0.00  0.00  1.00  0.00
  540                     1.00   0.00  0.00  0.00  1.00  0.00  0.00  0.00  0.00  0.00
  541                     1.00   0.00  0.00  0.00  1.00  0.00  0.00  0.00  1.00  0.00
  549                     1.00   0.00  0.00  0.00  1.00  0.00  0.00  0.00  1.00  0.00
  550                     1.00   0.00  0.00  0.00  1.00  0.00  0.00  0.00  1.00  0.00
  558                     1.00   0.00  0.00  0.00  1.00  0.00  0.00  0.00  0.00  0.00
  559                     1.00   0.00  0.00  0.00  1.00  0.00  0.00  0.00  0.00  0.00
  568                     1.00   0.00  0.00  0.00  1.00  0.00  0.00  0.00  1.00  0.00
  576                     1.00   0.00  0.00  0.00  0.00  1.00  0.00  0.00  0.00  0.00
  577                     1.00   0.00  0.00  0.00  1.00  0.00  0.00  0.00  1.00  0.00
  578                     1.00   0.00  0.00  0.00  1.00  0.00  0.00  0.00  1.00  0.00
  587                     1.00   0.00  0.00  0.00  0.00  1.00  0.00  0.00  0.00  0.00
  588                     1.00   0.00  0.00  0.00  1.00  0.00  0.00  0.00  1.00  0.00
  589                     1.00   0.00  1.00  0.00  0.00  0.00  0.00  0.00  0.00  0.00
  590                     1.00   0.00  0.00  0.00  1.00  0.00  0.00  0.00  1.00  0.00
  60                      1.00   0.00  0.00  0.00  1.00  0.00  0.00  0.00  1.00  0.00
  61                      1.00   0.00  1.00  0.00  0.00  0.00  0.00  0.00  0.00  0.00
  648                     1.00   0.00  0.00  0.00  1.00  0.00  0.00  0.00  0.00  0.00
  65                      1.00   0.00  0.00  0.00  0.00  1.00  0.00  0.00  1.00  0.00
  66                      1.00   0.00  0.00  0.00  0.00  1.00  0.00  0.00  0.00  0.00
  67                      1.00   0.00  0.00  0.00  0.00  1.00  0.00  0.00  1.00  0.00
  68                      1.00   0.00  0.00  0.00  1.00  0.00  0.00  0.00  1.00  0.00
  69                      1.00   0.00  0.00  0.00  0.00  1.00  0.00  0.00  1.00  0.00
  693                     1.00   0.00  0.00  0.00  1.00  0.00  0.00  0.00  1.00  0.00
  70                      1.00   0.00  0.00  0.00  0.00  1.00  0.00  0.00  1.00  0.00
  705                     1.00   0.00  0.00  0.00  1.00  0.00  0.00  0.00  1.00  0.00
  71                      1.00   0.00  0.00  0.00  0.00  0.00  0.00  1.00  0.00  0.00
  712                     1.00   0.00  1.00  0.00  0.00  0.00  0.00  0.00  0.00  0.00
  716                     1.00   0.00  0.00  0.00  0.00  1.00  0.00  0.00  0.00  0.00
  717                     1.00   0.00  0.00  0.00  0.00  1.00  0.00  0.00  0.00  0.00
  72                      1.00   0.00  0.00  0.00  1.00  0.00  0.00  0.00  1.00  0.00
  73                      1.00   0.00  0.00  0.00  1.00  0.00  0.00  0.00  1.00  0.00
  74                      1.00   0.00  0.00  0.00  1.00  0.00  0.00  0.00  1.00  0.00
  75                      1.00   0.00  0.00  0.00  1.00  0.00  0.00  0.00  1.00  0.00
  752                     1.00   0.00  0.00  0.00  0.00  1.00  0.00  0.00  1.00  0.00
  76                      1.00   0.00  0.00  0.00  1.00  0.00  0.00  0.00  0.00  0.00
  77                      1.00   0.00  0.00  0.00  1.00  0.00  0.00  0.00  1.00  0.00
  78                      1.00   0.00  0.00  0.00  1.00  0.00  0.00  0.00  1.00  0.00
  79                      1.00   0.00  0.00  0.00  1.00  0.00  0.00  0.00  0.00  0.00
  80                      1.00   0.00  0.00  0.00  1.00  0.00  0.00  0.00  1.00  0.00
  803                     1.00   0.00  0.00  0.00  0.00  1.00  0.00  0.00  1.00  0.00
  804                     1.00   0.00  0.00  0.00  0.00  1.00  0.00  0.00  0.00  0.00
  805                     1.00   0.00  0.00  0.00  0.00  1.00  0.00  0.00  1.00  0.00
  806                     1.00   0.00  0.00  0.00  0.00  1.00  0.00  0.00  1.00  0.00
  807                     1.00   0.00  0.00  0.00  0.00  1.00  0.00  0.00  1.00  0.00
  81                      1.00   0.00  0.00  0.00  0.00  1.00  0.00  0.00  0.00  0.00
  815                     1.00   0.00  0.00  0.00  0.00  1.00  0.00  0.00  1.00  0.00
  816                     1.00   0.00  0.00  0.00  0.00  1.00  0.00  0.00  1.00  0.00
  82                      1.00   0.00  0.00  0.00  0.00  1.00  0.00  0.00  1.00  0.00
  826                     1.00   0.00  0.00  0.00  1.00  0.00  0.00  0.00  1.00  0.00
  83                      1.00   0.00  0.00  0.00  0.00  1.00  0.00  0.00  0.00  0.00
  834                     1.00   0.00  0.00  0.00  1.00  0.00  0.00  0.00  0.00  0.00
  84                      1.00   0.00  0.00  0.00  1.00  0.00  0.00  0.00  1.00  0.00
  842                     1.00   0.00  0.00  0.00  1.00  0.00  0.00  0.00  0.00  0.00
  850                     1.00   0.00  0.00  0.00  1.00  0.00  0.00  0.00  0.00  0.00
  856                     1.00   0.00  0.00  0.00  1.00  0.00  0.00  0.00  0.00  0.00
  867                     1.00   0.00  0.00  0.00  1.00  0.00  0.00  0.00  0.00  0.00
  875                     1.00   0.00  0.00  0.00  0.00  1.00  0.00  0.00  1.00  0.00
  876                     1.00   0.00  0.00  0.00  0.00  1.00  0.00  0.00  0.00  0.00
  877                     1.00   0.00  0.00  0.00  0.00  1.00  0.00  0.00  0.00  0.00
  878                     1.00   0.00  0.00  0.00  1.00  0.00  0.00  0.00  1.00  0.00
  886                     1.00   0.00  0.00  0.00  0.00  1.00  0.00  0.00  0.00  0.00
  891                     1.00   0.00  0.00  0.00  0.00  1.00  0.00  0.00  1.00  0.00
  892                     1.00   0.00  0.00  0.00  0.00  1.00  0.00  0.00  0.00  0.00
  893                     1.00   0.00  0.00  0.00  0.00  1.00  0.00  0.00  0.00  0.00
  895                     1.00   0.00  0.00  0.00  0.00  1.00  0.00  0.00  1.00  0.00
  901                     1.00   0.00  0.00  0.00  0.00  1.00  0.00  0.00  1.00  0.00
  902                     1.00   0.00  0.00  0.00  0.00  1.00  0.00  0.00  0.00  0.00
  903                     1.00   0.00  0.00  0.00  0.00  1.00  0.00  0.00  0.00  0.00
  905                     1.00   0.00  0.00  0.00  1.00  0.00  0.00  0.00  0.00  0.00
  907                     1.00   0.00  0.00  0.00  1.00  0.00  0.00  0.00  1.00  0.00
  909                     1.00   0.00  0.00  0.00  0.00  1.00  0.00  0.00  1.00  0.00
  918                     1.00   0.00  0.00  0.00  1.00  0.00  0.00  0.00  1.00  0.00
  929                     1.00   0.00  0.00  0.00  0.00  1.00  0.00  0.00  0.00  0.00
  940                     1.00   0.00  0.00  0.00  1.00  0.00  0.00  0.00  1.00  0.00
  944                     1.00   0.00  0.00  0.00  1.00  0.00  0.00  0.00  1.00  0.00
  945                     1.00   0.00  0.00  0.00  1.00  0.00  0.00  0.00  0.00  0.00
  946                     1.00   0.00  0.00  0.00  1.00  0.00  0.00  0.00  1.00  0.00
  95                      1.00   0.00  0.00  0.00  1.00  0.00  0.00  0.00  0.00  0.00
  951                     1.00   0.00  0.00  0.00  1.00  0.00  0.00  0.00  0.00  0.00
  993                     1.00   0.00  0.00  0.00  0.00  1.00  0.00  0.00  0.00  0.00
  994                     1.00   0.00  0.00  0.00  0.00  1.00  0.00  0.00  1.00  0.00
  995                     1.00   0.00  0.00  0.00  0.00  1.00  0.00  0.00  0.00  0.00
  996                     1.00   0.00  0.00  0.00  0.00  1.00  0.00  0.00  1.00  0.00
  CDT-13                  1.00   0.00  0.00  0.00  1.00  0.00  0.00  0.00  0.00  0.00
  CDT-15                  1.00   0.00  0.00  0.00  1.00  0.00  0.00  0.00  0.00  0.00
  CDT-17                  1.00   0.00  0.00  0.00  0.00  1.00  0.00  0.00  0.00  0.00
  CDT-19                  1.00   0.00  0.00  0.00  1.00  0.00  0.00  0.00  0.00  0.00
  CDT-21                  1.00   0.00  0.00  0.00  1.00  0.00  0.00  0.00  0.00  0.00
  CDT-29                  1.00   0.00  1.00  0.00  0.00  0.00  0.00  0.00  0.00  0.00
  CDT-31                  1.00   0.00  0.00  0.00  1.00  0.00  0.00  0.00  1.00  0.00
  CDT-33                  1.00   0.00  0.00  0.00  1.00  0.00  0.00  0.00  0.00  0.00
  CDT-35                  1.00   0.00  0.00  0.00  1.00  0.00  0.00  0.00  0.00  0.00
  CDT-39                  1.00   0.00  0.00  0.00  0.00  1.00  0.00  0.00  0.00  0.00
  CDT-41                  1.00   0.00  0.00  0.00  0.00  1.00  0.00  0.00  0.00  0.00
  
  
  *************************
  Conduit Surcharge Summary
  *************************
  
  ----------------------------------------------------------------------------
                                                           Hours        Hours 
                         --------- Hours Full --------   Above Full   Capacity
  Conduit                Both Ends  Upstream  Dnstream   Normal Flow   Limited
  ----------------------------------------------------------------------------
  105                         0.01      0.01     24.00     24.00         0.01
  1113                        0.01      0.01     24.00      0.01         0.01
  1139                        0.01      0.01      0.01     24.00         0.01
  1193                        0.01      0.01     24.00      0.01         0.01
  1216                        0.01      0.01     24.00      0.01         0.01
  1231                        0.01      0.01     24.00      0.01         0.01
  1536                        0.01      0.01     24.00      0.01         0.01
  1684                        0.01      0.01      0.01     24.00         0.01
  2337                        0.01      0.01     24.00      0.01         0.01
  2778                        0.01      0.01      0.01     24.00         0.01
  2801                       24.00     24.00     24.00      0.01         0.01
  2802                       24.00     24.00     24.00      0.01         0.01
  3143                        0.01      0.01      0.01     24.00         0.01
  3476                        0.01      0.01     24.00      0.01         0.01
  3980                        0.01      0.01      0.01     24.00         0.01
  4000                        0.01      0.01      0.01     24.00         0.01
  4211                        0.01      0.01     24.00      0.01         0.01
  4594                        0.01      0.01     24.00      0.01         0.01
  4636                        0.01      0.01      0.01     24.00         0.01
  68                          0.01      0.01     24.00      0.01         0.01
  CDT-13                     24.00     24.00     24.00      0.01         0.01
  CDT-15                      0.01      0.01     24.00      0.01         0.01
  CDT-17                      0.01      0.01      0.01     24.00         0.01
  
  
  ***************
  Pumping Summary
  ***************
  
  ---------------------------------------------------------------------------------------------------------
                                                  Min       Avg       Max     Total     Power    % Time Off
                        Percent   Number of      Flow      Flow      Flow    Volume     Usage    Pump Curve
  Pump                 Utilized   Start-Ups       MGD       MGD       MGD  10^6 gal     Kw-hr    Low   High
  ---------------------------------------------------------------------------------------------------------
  PUMP-1                 100.00           0      0.00      0.81      0.81     0.806     69.41    0.0    0.0
  PUMP-10                100.00           0      0.00      0.65      0.65     0.648     27.34    0.0    0.0
  PUMP-15                100.00           0      0.00      5.54      5.54     5.544    462.65    0.0    0.0
  PUMP-18                100.00           0      0.00      0.21      0.21     0.208     10.76    0.0    0.0
  PUMP-2                 100.00           0      0.00      3.89      3.89     3.888    334.68    0.0    0.0
  PUMP-23                100.00           0      0.00      2.34      2.34     2.342    104.66    0.0    0.0
  PUMP-30                100.00           0      0.00      1.81      1.81     1.811    658.80    0.0    0.0
  PUMP-32                100.00           0      0.00      0.05      0.05     0.049      1.73    0.0    0.0
  PUMP-7                 100.00           0      0.00      0.37      0.37     0.371     61.14    0.0    0.0
  

  Analysis begun on:  Tue Jun 23 21:53:19 2026
  Analysis ended on:  Tue Jun 23 21:55:04 2026
  Total elapsed time: 00:01:45