
  EPA STORM WATER MANAGEMENT MODEL - VERSION 5.2 (Build 5.2.4)
  ------------------------------------------------------------

  Scenario Run :  BASE 
  WARNING 03: negative offset ignored for Link 1371.1
  WARNING 04: minimum elevation drop used for Conduit 2330.1
  WARNING 04: minimum elevation drop used for Conduit 9785.2
  WARNING 04: minimum elevation drop used for Conduit 000002.1
  WARNING 04: minimum elevation drop used for Conduit 000004.1
  WARNING 04: minimum elevation drop used for Conduit 000006.1
  WARNING 04: minimum elevation drop used for Conduit 000008.1
  WARNING 04: minimum elevation drop used for Conduit 000009.2
  WARNING 04: minimum elevation drop used for Conduit 000011.1
  WARNING 04: minimum elevation drop used for Conduit 000012.2
  WARNING 04: minimum elevation drop used for Conduit 000014.1
  WARNING 04: minimum elevation drop used for Conduit 000015.1
  WARNING 04: minimum elevation drop used for Conduit 000016.1
  WARNING 04: minimum elevation drop used for Conduit 000020.2
  WARNING 04: minimum elevation drop used for Conduit 000026.1
  WARNING 04: minimum elevation drop used for Conduit 000028.3
  WARNING 04: minimum elevation drop used for Conduit 000029.3
  WARNING 04: minimum elevation drop used for Conduit 000029A.1
  WARNING 04: minimum elevation drop used for Conduit 000031.1
  WARNING 04: minimum elevation drop used for Conduit 000032.1
  WARNING 04: minimum elevation drop used for Conduit 000034.1
  WARNING 04: minimum elevation drop used for Conduit 000037.2
  WARNING 04: minimum elevation drop used for Conduit 000040.1
  WARNING 04: minimum elevation drop used for Conduit 000041.2
  WARNING 04: minimum elevation drop used for Conduit 000042.3
  WARNING 04: minimum elevation drop used for Conduit 000044.1
  WARNING 04: minimum elevation drop used for Conduit 000045.1
  WARNING 04: minimum elevation drop used for Conduit 000045.2
  WARNING 04: minimum elevation drop used for Conduit 000047.1
  WARNING 04: minimum elevation drop used for Conduit 000053.1
  WARNING 04: minimum elevation drop used for Conduit 000054.1
  WARNING 04: minimum elevation drop used for Conduit 000055.1
  WARNING 04: minimum elevation drop used for Conduit 000056.1
  WARNING 04: minimum elevation drop used for Conduit 000057.1
  WARNING 04: minimum elevation drop used for Conduit 000058.1
  WARNING 04: minimum elevation drop used for Conduit 000060.1
  WARNING 04: minimum elevation drop used for Conduit 000061.1
  WARNING 04: minimum elevation drop used for Conduit 000063.1
  WARNING 04: minimum elevation drop used for Conduit 000064.1
  WARNING 04: minimum elevation drop used for Conduit 000071.1
  WARNING 04: minimum elevation drop used for Conduit 000080.1
  WARNING 04: minimum elevation drop used for Conduit 000092.1
  WARNING 04: minimum elevation drop used for Conduit 000095.1
  WARNING 04: minimum elevation drop used for Conduit 000106.1
  WARNING 04: minimum elevation drop used for Conduit 000108.1
  WARNING 04: minimum elevation drop used for Conduit 000109.1
  WARNING 04: minimum elevation drop used for Conduit 000113.1
  WARNING 04: minimum elevation drop used for Conduit 000116.1
  WARNING 04: minimum elevation drop used for Conduit 000118.1
  WARNING 04: minimum elevation drop used for Conduit 000128.1
  WARNING 04: minimum elevation drop used for Conduit 000132.2
  WARNING 04: minimum elevation drop used for Conduit 000134.2
  WARNING 04: minimum elevation drop used for Conduit 000135.1
  WARNING 04: minimum elevation drop used for Conduit 000151.1
  WARNING 04: minimum elevation drop used for Conduit 000152.1
  WARNING 04: minimum elevation drop used for Conduit 000158.2
  WARNING 04: minimum elevation drop used for Conduit 000159.1
  WARNING 04: minimum elevation drop used for Conduit 000172.1
  WARNING 04: minimum elevation drop used for Conduit 000174.1
  WARNING 04: minimum elevation drop used for Conduit 000175.1
  WARNING 04: minimum elevation drop used for Conduit 000179.1
  WARNING 04: minimum elevation drop used for Conduit 000180.2
  WARNING 04: minimum elevation drop used for Conduit 000181.2
  WARNING 04: minimum elevation drop used for Conduit 000183.2
  WARNING 04: minimum elevation drop used for Conduit 000184.2
  WARNING 04: minimum elevation drop used for Conduit 000191.1
  WARNING 04: minimum elevation drop used for Conduit 000191.2
  WARNING 04: minimum elevation drop used for Conduit 000193.1
  WARNING 04: minimum elevation drop used for Conduit 000195A.1
  WARNING 04: minimum elevation drop used for Conduit 000197.1
  WARNING 04: minimum elevation drop used for Conduit 000198.1
  WARNING 04: minimum elevation drop used for Conduit 000199.1
  WARNING 04: minimum elevation drop used for Conduit 000200.2
  WARNING 04: minimum elevation drop used for Conduit 000204.1
  WARNING 04: minimum elevation drop used for Conduit 000206.2
  WARNING 04: minimum elevation drop used for Conduit 000223.1
  WARNING 04: minimum elevation drop used for Conduit 000224.2
  WARNING 04: minimum elevation drop used for Conduit 000225.1
  WARNING 04: minimum elevation drop used for Conduit 000226.2
  WARNING 04: minimum elevation drop used for Conduit 000227.2
  WARNING 04: minimum elevation drop used for Conduit 000228.1
  WARNING 04: minimum elevation drop used for Conduit 000235.1
  WARNING 04: minimum elevation drop used for Conduit 000238.1
  WARNING 04: minimum elevation drop used for Conduit 000240.1
  WARNING 04: minimum elevation drop used for Conduit 000244.1
  WARNING 04: minimum elevation drop used for Conduit 000246.1
  WARNING 04: minimum elevation drop used for Conduit 000248.2
  WARNING 04: minimum elevation drop used for Conduit 000253.1
  WARNING 04: minimum elevation drop used for Conduit 000259.1
  WARNING 04: minimum elevation drop used for Conduit 000262.3
  WARNING 04: minimum elevation drop used for Conduit 000263.3
  WARNING 04: minimum elevation drop used for Conduit 000264.1
  WARNING 04: minimum elevation drop used for Conduit 000265.1
  WARNING 04: minimum elevation drop used for Conduit 000266.2
  WARNING 04: minimum elevation drop used for Conduit 000266_1.1
  WARNING 04: minimum elevation drop used for Conduit 000267.3
  WARNING 04: minimum elevation drop used for Conduit 000269.1
  WARNING 04: minimum elevation drop used for Conduit 000273.2
  WARNING 04: minimum elevation drop used for Conduit 000274.1
  WARNING 04: minimum elevation drop used for Conduit 000279.1
  WARNING 04: minimum elevation drop used for Conduit 000291.2
  WARNING 04: minimum elevation drop used for Conduit 000293.3
  WARNING 04: minimum elevation drop used for Conduit 000294.1
  WARNING 04: minimum elevation drop used for Conduit 000295.2
  WARNING 04: minimum elevation drop used for Conduit 000297.1
  WARNING 04: minimum elevation drop used for Conduit 000299.1
  WARNING 04: minimum elevation drop used for Conduit 000299.2
  WARNING 04: minimum elevation drop used for Conduit 000301.2
  WARNING 04: minimum elevation drop used for Conduit 000303A.2
  WARNING 04: minimum elevation drop used for Conduit 000304.1
  WARNING 04: minimum elevation drop used for Conduit 000307.1
  WARNING 04: minimum elevation drop used for Conduit 000309.2
  WARNING 04: minimum elevation drop used for Conduit 000311.1
  WARNING 04: minimum elevation drop used for Conduit 000316.1
  WARNING 04: minimum elevation drop used for Conduit 000320.1
  WARNING 04: minimum elevation drop used for Conduit 000326.2
  WARNING 04: minimum elevation drop used for Conduit 000340.2
  WARNING 04: minimum elevation drop used for Conduit 000349.1
  WARNING 04: minimum elevation drop used for Conduit 000353.1
  WARNING 08: elevation drop exceeds length for Conduit 000354.1
  WARNING 04: minimum elevation drop used for Conduit 000356.1
  WARNING 04: minimum elevation drop used for Conduit 000358.2
  WARNING 04: minimum elevation drop used for Conduit 000360.1
  WARNING 04: minimum elevation drop used for Conduit 000362.1
  WARNING 04: minimum elevation drop used for Conduit 000363.1
  WARNING 04: minimum elevation drop used for Conduit 000363_1.1
  WARNING 04: minimum elevation drop used for Conduit 000365.1
  WARNING 04: minimum elevation drop used for Conduit 000366.1
  WARNING 04: minimum elevation drop used for Conduit 000369.1
  WARNING 04: minimum elevation drop used for Conduit 000370.1
  WARNING 04: minimum elevation drop used for Conduit 000374.2
  WARNING 04: minimum elevation drop used for Conduit 000375.1
  WARNING 04: minimum elevation drop used for Conduit 000377.1
  WARNING 04: minimum elevation drop used for Conduit 000380.2
  WARNING 04: minimum elevation drop used for Conduit 000380_1.2
  WARNING 04: minimum elevation drop used for Conduit 000383.1
  WARNING 04: minimum elevation drop used for Conduit 000385.1
  WARNING 04: minimum elevation drop used for Conduit 000386.2
  WARNING 04: minimum elevation drop used for Conduit 000388.1
  WARNING 04: minimum elevation drop used for Conduit 000389.2
  WARNING 04: minimum elevation drop used for Conduit 000390.1
  WARNING 04: minimum elevation drop used for Conduit 000393.1
  WARNING 04: minimum elevation drop used for Conduit 000395.1
  WARNING 04: minimum elevation drop used for Conduit 000399.2
  WARNING 04: minimum elevation drop used for Conduit 000404.1
  WARNING 04: minimum elevation drop used for Conduit 000405.2
  WARNING 04: minimum elevation drop used for Conduit 000406.2
  WARNING 04: minimum elevation drop used for Conduit 000407.1
  WARNING 04: minimum elevation drop used for Conduit 000417.1
  WARNING 04: minimum elevation drop used for Conduit 000419.1
  WARNING 04: minimum elevation drop used for Conduit 000421.1
  WARNING 04: minimum elevation drop used for Conduit 000429.1
  WARNING 04: minimum elevation drop used for Conduit 000430.1
  WARNING 04: minimum elevation drop used for Conduit 000431.2
  WARNING 04: minimum elevation drop used for Conduit 000433.1
  WARNING 04: minimum elevation drop used for Conduit 000434.1
  WARNING 04: minimum elevation drop used for Conduit 000435.1
  WARNING 04: minimum elevation drop used for Conduit 000436.2
  WARNING 04: minimum elevation drop used for Conduit 000437.2
  WARNING 04: minimum elevation drop used for Conduit 000438.1
  WARNING 04: minimum elevation drop used for Conduit 000439.2
  WARNING 04: minimum elevation drop used for Conduit 000440.1
  WARNING 04: minimum elevation drop used for Conduit 000441.1
  WARNING 04: minimum elevation drop used for Conduit 000441.2
  WARNING 04: minimum elevation drop used for Conduit 000442.2
  WARNING 04: minimum elevation drop used for Conduit 000443.2
  WARNING 04: minimum elevation drop used for Conduit 000444.3
  WARNING 04: minimum elevation drop used for Conduit 000447.1
  WARNING 04: minimum elevation drop used for Conduit 000449.1
  WARNING 04: minimum elevation drop used for Conduit 000454.1
  WARNING 04: minimum elevation drop used for Conduit 000457.2
  WARNING 04: minimum elevation drop used for Conduit 000458.2
  WARNING 08: elevation drop exceeds length for Conduit 000462_1.3
  WARNING 04: minimum elevation drop used for Conduit 000466.1
  WARNING 04: minimum elevation drop used for Conduit 000471.1
  WARNING 04: minimum elevation drop used for Conduit 000472.2
  WARNING 04: minimum elevation drop used for Conduit 000473.2
  WARNING 04: minimum elevation drop used for Conduit 000479.2
  WARNING 04: minimum elevation drop used for Conduit 000482.2
  WARNING 04: minimum elevation drop used for Conduit 000483.1
  WARNING 04: minimum elevation drop used for Conduit 000487.2
  WARNING 04: minimum elevation drop used for Conduit 000489.1
  WARNING 04: minimum elevation drop used for Conduit 000496.1
  WARNING 04: minimum elevation drop used for Conduit 000498.1
  WARNING 04: minimum elevation drop used for Conduit 000501.1
  WARNING 04: minimum elevation drop used for Conduit 000502.1
  WARNING 04: minimum elevation drop used for Conduit 000509.1
  WARNING 04: minimum elevation drop used for Conduit 000512.1
  WARNING 04: minimum elevation drop used for Conduit 00051A.1
  WARNING 04: minimum elevation drop used for Conduit 000524.1
  WARNING 04: minimum elevation drop used for Conduit 000526.1
  WARNING 04: minimum elevation drop used for Conduit 000527.2
  WARNING 04: minimum elevation drop used for Conduit 000528.2
  WARNING 04: minimum elevation drop used for Conduit 000532.2
  WARNING 04: minimum elevation drop used for Conduit 000541.1
  WARNING 04: minimum elevation drop used for Conduit 000547.1
  WARNING 04: minimum elevation drop used for Conduit 000550.1
  WARNING 04: minimum elevation drop used for Conduit 000551.1
  WARNING 04: minimum elevation drop used for Conduit 000552.1
  WARNING 04: minimum elevation drop used for Conduit 000554.1
  WARNING 04: minimum elevation drop used for Conduit 000560.1
  WARNING 04: minimum elevation drop used for Conduit 000562.1
  WARNING 04: minimum elevation drop used for Conduit 000563.2
  WARNING 04: minimum elevation drop used for Conduit 000564.1
  WARNING 04: minimum elevation drop used for Conduit 000566.1
  WARNING 04: minimum elevation drop used for Conduit 000568.1
  WARNING 04: minimum elevation drop used for Conduit 000576.1
  WARNING 04: minimum elevation drop used for Conduit 000581.1
  WARNING 04: minimum elevation drop used for Conduit 000581.2
  WARNING 04: minimum elevation drop used for Conduit 000582.1
  WARNING 04: minimum elevation drop used for Conduit 000584.2
  WARNING 04: minimum elevation drop used for Conduit 000585.1
  WARNING 04: minimum elevation drop used for Conduit 000590.1
  WARNING 04: minimum elevation drop used for Conduit 000595.1
  WARNING 04: minimum elevation drop used for Conduit 000596.2
  WARNING 04: minimum elevation drop used for Conduit 000597.2
  WARNING 04: minimum elevation drop used for Conduit 000599.2
  WARNING 04: minimum elevation drop used for Conduit 000600.2
  WARNING 04: minimum elevation drop used for Conduit 000606.2
  WARNING 04: minimum elevation drop used for Conduit 000610.2
  WARNING 04: minimum elevation drop used for Conduit 000620.1
  WARNING 04: minimum elevation drop used for Conduit 000623.1
  WARNING 04: minimum elevation drop used for Conduit 000625.1
  WARNING 04: minimum elevation drop used for Conduit 000627.1
  WARNING 04: minimum elevation drop used for Conduit 000628.1
  WARNING 04: minimum elevation drop used for Conduit 000631.1
  WARNING 04: minimum elevation drop used for Conduit 000635.2
  WARNING 04: minimum elevation drop used for Conduit 000638.1
  WARNING 04: minimum elevation drop used for Conduit 000642.2
  WARNING 04: minimum elevation drop used for Conduit 000656.3
  WARNING 04: minimum elevation drop used for Conduit 000657.1
  WARNING 04: minimum elevation drop used for Conduit 000658.1
  WARNING 04: minimum elevation drop used for Conduit 000658.2
  WARNING 04: minimum elevation drop used for Conduit 000659.1
  WARNING 04: minimum elevation drop used for Conduit 000660.2
  WARNING 04: minimum elevation drop used for Conduit 000662.2
  WARNING 04: minimum elevation drop used for Conduit 000663.1
  WARNING 04: minimum elevation drop used for Conduit 000665.2
  WARNING 04: minimum elevation drop used for Conduit 000666.1
  WARNING 04: minimum elevation drop used for Conduit 000669.1
  WARNING 04: minimum elevation drop used for Conduit 000677.1
  WARNING 04: minimum elevation drop used for Conduit 000678.1
  WARNING 04: minimum elevation drop used for Conduit 000681.1
  WARNING 04: minimum elevation drop used for Conduit 000682.1
  WARNING 04: minimum elevation drop used for Conduit 000686.2
  WARNING 04: minimum elevation drop used for Conduit 000688.2
  WARNING 04: minimum elevation drop used for Conduit 000689.1
  WARNING 04: minimum elevation drop used for Conduit 000690.1
  WARNING 04: minimum elevation drop used for Conduit 000691.1
  WARNING 04: minimum elevation drop used for Conduit 000692.1
  WARNING 08: elevation drop exceeds length for Conduit 000703_1.1
  WARNING 08: elevation drop exceeds length for Conduit 000705.1
  WARNING 04: minimum elevation drop used for Conduit 000708.1
  WARNING 04: minimum elevation drop used for Conduit 000716.2
  WARNING 04: minimum elevation drop used for Conduit 000719.1
  WARNING 04: minimum elevation drop used for Conduit 000723.2
  WARNING 04: minimum elevation drop used for Conduit 000724.1
  WARNING 04: minimum elevation drop used for Conduit 000725.1
  WARNING 04: minimum elevation drop used for Conduit 000730.1
  WARNING 04: minimum elevation drop used for Conduit 000732.1
  WARNING 04: minimum elevation drop used for Conduit 000735.1
  WARNING 04: minimum elevation drop used for Conduit 000747.1
  WARNING 04: minimum elevation drop used for Conduit 000750.1
  WARNING 04: minimum elevation drop used for Conduit 000752.1
  WARNING 04: minimum elevation drop used for Conduit 000753.1
  WARNING 04: minimum elevation drop used for Conduit 000755.2
  WARNING 04: minimum elevation drop used for Conduit 000758.1
  WARNING 04: minimum elevation drop used for Conduit 000759.1
  WARNING 04: minimum elevation drop used for Conduit 000760.1
  WARNING 04: minimum elevation drop used for Conduit 000761.1
  WARNING 04: minimum elevation drop used for Conduit 000765.2
  WARNING 04: minimum elevation drop used for Conduit 000766.1
  WARNING 04: minimum elevation drop used for Conduit 000766.2
  WARNING 04: minimum elevation drop used for Conduit 000771.1
  WARNING 04: minimum elevation drop used for Conduit 000772.1
  WARNING 04: minimum elevation drop used for Conduit 000775.2
  WARNING 04: minimum elevation drop used for Conduit 000776.1
  WARNING 04: minimum elevation drop used for Conduit 000779.1
  WARNING 04: minimum elevation drop used for Conduit 000780.1
  WARNING 04: minimum elevation drop used for Conduit 000784.1
  WARNING 04: minimum elevation drop used for Conduit 000785.1
  WARNING 04: minimum elevation drop used for Conduit 000790.2
  WARNING 04: minimum elevation drop used for Conduit 000791.2
  WARNING 04: minimum elevation drop used for Conduit 000794.1
  WARNING 04: minimum elevation drop used for Conduit 000796.1
  WARNING 04: minimum elevation drop used for Conduit 000799.1
  WARNING 04: minimum elevation drop used for Conduit 000800.1
  WARNING 04: minimum elevation drop used for Conduit 000801.2
  WARNING 04: minimum elevation drop used for Conduit 000802.2
  WARNING 04: minimum elevation drop used for Conduit 000804.1
  WARNING 04: minimum elevation drop used for Conduit 000809.1
  WARNING 04: minimum elevation drop used for Conduit 000810.2
  WARNING 04: minimum elevation drop used for Conduit 000815.1
  WARNING 04: minimum elevation drop used for Conduit 000818.1
  WARNING 04: minimum elevation drop used for Conduit 000819.2
  WARNING 04: minimum elevation drop used for Conduit 000821.1
  WARNING 04: minimum elevation drop used for Conduit 000821A.1
  WARNING 04: minimum elevation drop used for Conduit 000823.2
  WARNING 04: minimum elevation drop used for Conduit 000829.1
  WARNING 04: minimum elevation drop used for Conduit 000830.1
  WARNING 04: minimum elevation drop used for Conduit 000832.2
  WARNING 04: minimum elevation drop used for Conduit 000834.1
  WARNING 04: minimum elevation drop used for Conduit 000837.1
  WARNING 04: minimum elevation drop used for Conduit 000839.2
  WARNING 04: minimum elevation drop used for Conduit 000840.1
  WARNING 04: minimum elevation drop used for Conduit 000844.1
  WARNING 04: minimum elevation drop used for Conduit 000848.1
  WARNING 04: minimum elevation drop used for Conduit 000849.1
  WARNING 04: minimum elevation drop used for Conduit 000853.1
  WARNING 04: minimum elevation drop used for Conduit 000854.1
  WARNING 04: minimum elevation drop used for Conduit 000859.1
  WARNING 04: minimum elevation drop used for Conduit 000860.1
  WARNING 04: minimum elevation drop used for Conduit 000862.2
  WARNING 04: minimum elevation drop used for Conduit 000864.1
  WARNING 04: minimum elevation drop used for Conduit 000866.2
  WARNING 04: minimum elevation drop used for Conduit 000869.2
  WARNING 04: minimum elevation drop used for Conduit 000870.1
  WARNING 04: minimum elevation drop used for Conduit 000871.2
  WARNING 04: minimum elevation drop used for Conduit 000872.1
  WARNING 02: maximum depth increased for Node 000679
  
  *************
  Element Count
  *************
  Number of rain gages ...... 1
  Number of subcatchments ... 146
  Number of nodes ........... 1047
  Number of links ........... 1122
  Number of pollutants ...... 0
  Number of land uses ....... 0
  
  
  ****************
  Raingage Summary
  ****************
                                                      Data       Recording
  Name                 Data Source                    Type       Interval 
  ------------------------------------------------------------------------
  1                    SCS_FL_MOD                     INTENSITY   15 min.
  
  
  ********************
  Subcatchment Summary
  ********************
  Name                       Area     Width   %Imperv    %Slope Rain Gage            Outlet              
  -----------------------------------------------------------------------------------------------------------
  1                          0.00      0.00      0.00    0.0000 1                    000634              
  10                         0.00      0.00      0.00    0.4983 1                    2675                
  10_1_1                     0.00      0.00      0.00    0.2346 1                    2677                
  10_1_2                     0.00      0.00      0.00    0.1615 1                    000359_1            
  10_1_3                     0.00      0.00      0.00    0.5759 1                    000361_1            
  10_1_5                     0.00      0.00      0.00    0.5575 1                    000357_1            
  10_1_6                     0.00      0.00      0.00    0.4776 1                    000352_1            
  10_1_7                     0.00      0.00      0.00    0.4329 1                    2663                
  12                         0.00      0.00      0.00    0.0000 1                    000100              
  13                         0.00      0.00      0.00    0.3772 1                    000484_1            
  13_1                       0.00      0.00      0.00    1.5726 1                    000363_1            
  13_2                       0.00      0.00      0.00    0.2112 1                    000370_1            
  13_2_1                     0.00      0.00      0.00    0.5482 1                    000369_1            
  13_2_2                     0.00      0.00      0.00    0.0000 1                    000156              
  14                         0.00      0.00      0.00    0.0000 1                    000170              
  15                         0.00      0.00      0.00    0.0000 1                    1391                
  15C                        0.00      0.00      0.00    0.4889 1                    1373                
  15C_1                      0.00      0.00      0.00    0.1730 1                    1375                
  15C_1_1                    0.00      0.00      0.00    0.2814 1                    1420                
  15C_1_1_1                  0.00      0.00      0.00    0.0029 1                    1399                
  15C_1_1_2                  0.00      0.00      0.00    0.0873 1                    1402                
  15C_1_1_3                  0.00      0.00      0.00    1.1570 1                    1419                
  15C_1_1_3_1                0.00      0.00      0.00    0.2814 1                    1420                
  15C_1_2                    0.00      0.00      0.00    0.0029 1                    1399                
  16                         0.00      0.00      0.00    0.0000 1                    000097              
  17                         0.00      0.00      0.00    0.0000 1                    000051              
  17_1                       0.00      0.00      0.00    0.3342 1                    1555                
  17_2                       0.00      0.00      0.00    0.2269 1                    1345                
  18                         0.00      0.00      0.00    0.5786 1                    1597                
  18_1                       0.00      0.00      0.00    0.1593 1                    000695              
  18_2                       0.00      0.00      0.00    0.1861 1                    1619                
  18_3                       0.00      0.00      0.00    0.7060 1                    1621                
  19                         0.00      0.00      0.00    0.0000 1                    000652              
  2                          0.00      0.00      0.00    0.0222 1                    1815                
  20                         0.00      0.00      0.00    0.0000 1                    000805              
  21                         0.00      0.00      0.00    0.0000 1                    000654              
  21_1                       0.00      0.00      0.00    0.0625 1                    2293                
  21_2                       0.00      0.00      0.00    0.0285 1                    2513                
  21_2_1                     0.00      0.00      0.00    0.1833 1                    2514                
  21_2_1_1                   0.00      0.00      0.00    0.1185 1                    2515                
  21_2_1_1_1                 0.00      0.00      0.00    0.4182 1                    2516                
  2_1                        0.00      0.00      0.00    2.4263 1                    2128                
  2_10                       0.00      0.00      0.00    0.4232 1                    000259_1            
  2_11                       0.00      0.00      0.00    2.5904 1                    2416                
  2_12                       0.00      0.00      0.00    0.0000 1                    1849                
  2_13                       0.00      0.00      0.00    0.1956 1                    2379                
  2_14                       0.00      0.00      0.00    0.7099 1                    2382                
  2_15                       0.00      0.00      0.00    0.5452 1                    2257                
  2_16                       0.00      0.00      0.00    2.3177 1                    1833                
  2_17                       0.00      0.00      0.00    0.4750 1                    2050                
  2_18                       0.00      0.00      0.00    0.7956 1                    1835                
  2_19                       0.00      0.00      0.00    1.1927 1                    1819                
  2_2                        0.00      0.00      0.00    0.0000 1                    000232_1            
  2_3                        0.00      0.00      0.00    0.0000 1                    2352                
  2_4                        0.00      0.00      0.00    0.0142 1                    2350                
  2_5                        0.00      0.00      0.00    0.3465 1                    2340                
  2_6                        0.00      0.00      0.00    1.5498 1                    000474_1            
  2_7                        0.00      0.00      0.00    0.0000 1                    000294_1            
  2_8                        0.00      0.00      0.00    0.0000 1                    2420                
  2_9                        0.00      0.00      0.00    0.7288 1                    000266_1            
  30                         0.00      0.00      0.00    0.0000 1                    000517              
  33                         0.00      0.00      0.00    0.0000 1                    000305              
  34                         0.00      0.00      0.00    0.0000 1                    000709              
  34_1                       0.00      0.00      0.00    0.0000 1                    000709              
  36                         0.00      0.00      0.00    0.0000 1                    000824              
  37                         0.00      0.00      0.00    0.0000 1                    000195              
  38                         0.00      0.00      0.00    0.0000 1                    000245              
  39                         0.00      0.00      0.00    0.0000 1                    000717              
  4                          0.00      0.00      0.00    0.0000 1                    000401_1            
  40                         0.00      0.00      0.00    0.0000 1                    000593A             
  41                         0.00      0.00      0.00    0.0000 1                    000359              
  42                         0.00      0.00      0.00    0.3512 1                    9793                
  43                         0.00      0.00      0.00    0.0000 1                    000460              
  44                         0.00      0.00      0.00    0.0000 1                    000068              
  45                         0.00      0.00      0.00    0.0000 1                    5225                
  45_1                       0.00      0.00      0.00    0.3183 1                    5604                
  48                         0.00      0.00      0.00    0.0000 1                    000420              
  49                         0.00      0.00      0.00    0.0000 1                    000756A             
  4_1                        0.00      0.00      0.00    0.0000 1                    2221A               
  4_2                        0.00      0.00      0.00    0.1338 1                    2012                
  4_4                        0.00      0.00      0.00    0.0518 1                    2207                
  5                          0.00      0.00      0.00    0.8155 1                    1798                
  51                         0.00      0.00      0.00    0.0000 1                    000470              
  52                         0.00      0.00      0.00    0.0000 1                    000490              
  5_1                        0.00      0.00      0.00    0.0000 1                    000643              
  5_2                        0.00      0.00      0.00    0.3731 1                    000461_1            
  5_3                        0.00      0.00      0.00    0.0000 1                    000456_1            
  5_4                        0.00      0.00      0.00    1.2532 1                    000096_1            
  5_5                        0.00      0.00      0.00    0.4052 1                    2082                
  5_6                        0.00      0.00      0.00    0.0000 1                    000091_1            
  5_7                        0.00      0.00      0.00    0.1768 1                    1801                
  5_8                        0.00      0.00      0.00    0.2353 1                    1735                
  5_9                        0.00      0.00      0.00    0.5279 1                    000036_1            
  5_9_1                      0.00      0.00      0.00    0.2353 1                    1735                
  5_9_2                      0.00      0.00      0.00    0.0685 1                    1733                
  5_9_3                      0.00      0.00      0.00    0.0000 1                    1692                
  6                          0.00      0.00      0.00    0.0805 1                    1660                
  6_1                        0.00      0.00      0.00    0.1274 1                    000099_1            
  6_2                        0.00      0.00      0.00    0.0112 1                    1659                
  6_3                        0.00      0.00      0.00    1.4935 1                    1671                
  6_3_1                      0.00      0.00      0.00    0.4393 1                    000037_1            
  6_3_2                      0.00      0.00      0.00    0.4269 1                    000049_1            
  6_3_2_1                    0.00      0.00      0.00    0.0708 1                    000025_1            
  6_3_2_2                    0.00      0.00      0.00    2.4072 1                    000055_1            
  6_3_2_3                    0.00      0.00      0.00    0.6225 1                    000050_1            
  6_3_2_4                    0.00      0.00      0.00    0.6092 1                    000048_1            
  6_3_2_5                    0.00      0.00      0.00    0.2420 1                    9787                
  6_3_2_5_1                  0.00      0.00      0.00    0.7832 1                    000059_1            
  6_3_2_5_2                  0.00      0.00      0.00    1.5635 1                    000057_1            
  6_3_2_5_3                  0.00      0.00      0.00    0.0000 1                    9785                
  6_3_2_5_3_1                0.00      0.00      0.00    0.0000 1                    9788                
  6_4                        0.00      0.00      0.00    0.0360 1                    1681                
  7                          0.00      0.00      0.00    0.1209 1                    1720                
  7_1                        0.00      0.00      0.00    0.1642 1                    000160_1            
  7_2                        0.00      0.00      0.00    0.2642 1                    2099                
  7_3                        0.00      0.00      0.00    0.1836 1                    2063                
  7_4                        0.00      0.00      0.00    0.0000 1                    2058                
  7_5                        0.00      0.00      0.00    0.0000 1                    2055                
  7_6                        0.00      0.00      0.00    0.0000 1                    2052                
  7_7                        0.00      0.00      0.00    0.0000 1                    1775                
  8                          0.00      0.00      0.00    0.0000 1                    000655              
  9                          0.00      0.00      0.00    0.0000 1                    000005              
  LS10                       0.00      0.00      0.00    0.2462 1                    2674                
  LS10B                      0.00      0.00      0.00    0.0000 1                    000154              
  LS11                       0.00      0.00      0.00    0.0000 1                    000603              
  LS22                       0.00      0.00      0.00    0.0000 1                    000513              
  LS23                       0.00      0.00      0.00    0.0000 1                    000604              
  LS24                       0.00      0.00      0.00    0.0000 1                    000158B             
  LS25                       0.00      0.00      0.00    0.0000 1                    000387              
  LS26                       0.00      0.00      0.00    0.0000 1                    000530              
  LS27                       0.00      0.00      0.00    0.0000 1                    000667              
  LS28                       0.00      0.00      0.00    1.0800 1                    000268              
  LS31                       0.00      0.00      0.00    0.0000 1                    000793              
  LS32                       0.00      0.00      0.00    0.0000 1                    000459              
  LS35_1                     0.00      0.00      0.00    0.0000 1                    000091              
  LS39                       0.00      0.00      0.00    0.0000 1                    000717              
  LS4                        0.00      0.00      0.00    0.0000 1                    000195_1            
  LS4-1                      0.00      0.00      0.00    0.7979 1                    000202_1            
  LS4-2                      0.00      0.00      0.00    0.3080 1                    2305                
  LS4-3                      0.00      0.00      0.00    0.0196 1                    1929                
  LS4-4                      0.00      0.00      0.00    0.0264 1                    1928                
  LS4-5                      0.00      0.00      0.00    0.1948 1                    2107                
  LS46                       0.00      0.00      0.00    0.0000 1                    000731              
  LS47                       0.00      0.00      0.00    0.0000 1                    000827              
  LS50                       0.00      0.00      0.00    0.0000 1                    000786              
  000171_PRIVATE             0.00      0.00      0.00    0.0000 1                    000171              
  
  
  ************
  Node Summary
  ************
                                           Invert      Max.    Ponded    External
  Name                 Type                 Elev.     Depth      Area    Inflow  
  -------------------------------------------------------------------------------
  1345                 JUNCTION             20.16      7.08  454329.3    Yes
  1346                 JUNCTION             20.18      4.82       0.0
  1347                 JUNCTION             22.36      5.29       0.0
  1371                 JUNCTION             12.21     14.96       0.0
  1373                 JUNCTION             14.89     10.48 2285533.7    Yes
  1375                 JUNCTION             16.98      9.57  336571.2    Yes
  1378                 JUNCTION             17.82      8.18       0.0
  1391                 JUNCTION             13.82     13.35 1524394.7    Yes
  1399                 JUNCTION             18.68      7.33 1340658.8    Yes
  1400A                JUNCTION             18.74      6.57       0.0
  1401A                JUNCTION             19.11      6.26       0.0
  1402                 JUNCTION             20.08      5.46  265487.9    Yes
  1404                 JUNCTION             20.67      5.73       0.0
  1409                 JUNCTION             23.46      3.97       0.0
  1410                 JUNCTION             24.83      9.21       0.0
  1419                 JUNCTION             20.86      6.20  278112.3    Yes
  1420                 JUNCTION             21.99      4.34  317802.7    Yes
  1554                 JUNCTION             26.20      5.69       0.0
  1555                 JUNCTION             27.61      5.62  409772.5    Yes
  1595                 JUNCTION             22.18      7.30       0.0
  1596                 JUNCTION             22.88      7.16       0.0
  1597                 JUNCTION             21.15      8.64 1494380.0    Yes
  1619                 JUNCTION             26.38      7.00  125249.9    Yes
  1621                 JUNCTION             23.86      8.06  488694.3    Yes
  1653                 JUNCTION             29.97      7.95       0.0
  1659                 JUNCTION             24.71      5.65  153334.7    Yes
  1660                 JUNCTION             24.06      6.33  488447.2    Yes
  1671                 JUNCTION             30.60      3.49  536630.5    Yes
  1681                 JUNCTION             23.49      6.63  237972.5    Yes
  1687                 JUNCTION             21.82      8.29       0.0
  1689                 JUNCTION             26.37      4.40       0.0
  1692                 JUNCTION             25.85      6.92  145145.4    Yes
  1694                 JUNCTION             21.26      8.74       0.0
  1720                 JUNCTION             35.78      1.98 1134271.9    Yes
  1721                 JUNCTION             35.60      2.38       0.0
  1722                 JUNCTION             35.12      2.44       0.0
  1723                 JUNCTION             34.55      3.78       0.0
  1733                 JUNCTION             25.35      7.83  143156.6    Yes
  1735                 JUNCTION             24.83      8.52  494147.2    Yes
  1736                 JUNCTION             24.41      9.55       0.0
  1755                 JUNCTION             31.40      7.03       0.0
  1766                 JUNCTION             26.34      6.57       0.0
  1775                 JUNCTION             24.83      5.94  600073.9    Yes
  1791                 JUNCTION             21.06     13.12       0.0
  1798                 JUNCTION             23.63     11.36  744252.9    Yes
  1801                 JUNCTION             23.23      9.77  322823.0    Yes
  1807                 JUNCTION             33.38      4.99       0.0
  1815                 JUNCTION             15.36      5.17  455775.7    Yes
  1818                 JUNCTION             37.78      5.64       0.0
  1819                 JUNCTION             38.43      5.91  474145.9    Yes
  1820                 JUNCTION             26.92     18.00       0.0
  1821                 JUNCTION             26.83     17.49       0.0
  1822                 JUNCTION             26.31      5.88       0.0
  1824                 JUNCTION             30.79      3.00       0.0
  1825                 JUNCTION             30.40      4.44       0.0
  1827                 JUNCTION             29.44      3.75       0.0
  1828                 JUNCTION             29.23      4.34       0.0
  1829                 JUNCTION             28.37      8.73       0.0
  1833                 JUNCTION             10.84      4.87  587202.6    Yes
  1835                 JUNCTION             14.24      6.34  606554.8    Yes
  1849                 JUNCTION             29.08      3.00  685029.2    Yes
  1928                 JUNCTION             17.74     10.90  579863.9    Yes
  1929                 JUNCTION             17.14     11.57 2293055.7    Yes
  2012                 JUNCTION             17.14      8.61  581388.9    Yes
  2017                 JUNCTION             12.94     13.06       0.0
  2050                 JUNCTION             12.35      4.94  215367.3    Yes
  2052                 JUNCTION             23.74      6.56  353284.4    Yes
  2055                 JUNCTION             23.09      6.44  352312.0    Yes
  2058                 JUNCTION             22.30      6.79  312951.8    Yes
  2063                 JUNCTION             21.72      7.37  315161.4    Yes
  2081                 JUNCTION             19.74      8.60       0.0
  2082                 JUNCTION             19.24     11.73  969862.8    Yes
  2098                 JUNCTION             19.74     10.83       0.0
  2099                 JUNCTION             21.19      8.36  269893.2    Yes
  2107                 JUNCTION             19.65     11.09  433804.0    Yes
  2128                 JUNCTION             20.43      3.00 3733680.0    Yes
  2207                 JUNCTION             18.12      7.45  975151.1    Yes
  2208                 JUNCTION             18.34      6.45       0.0
  2209                 JUNCTION             18.90      6.50       0.0
  2221A                JUNCTION             17.19      8.53 1926039.4    Yes
  2257                 JUNCTION              9.38      5.11  325767.9    Yes
  2293                 JUNCTION             16.57      2.92  105802.0    Yes
  2295                 JUNCTION             15.81      3.49       0.0
  2305                 JUNCTION             16.03     12.75  528061.9    Yes
  2330                 JUNCTION              1.59      5.96       0.0
  2332                 JUNCTION              0.76      3.99       0.0
  2333                 JUNCTION              0.36      4.25       0.0
  2338                 JUNCTION              0.04      4.03       0.0
  2339                 JUNCTION              0.30      3.74       0.0
  2340                 JUNCTION              1.19      3.35   96144.5    Yes
  2341                 JUNCTION              1.35      3.40       0.0
  2350                 JUNCTION              1.71      3.01  111602.2    Yes
  2352                 JUNCTION              1.97      3.03  203434.8    Yes
  2353                 JUNCTION              2.72      2.37       0.0
  2379                 JUNCTION              4.02      4.03  728140.1    Yes
  2380                 JUNCTION              4.76      3.53       0.0
  2381                 JUNCTION              5.58      5.24       0.0
  2382                 JUNCTION              7.68      4.40  464773.9    Yes
  2416                 JUNCTION              3.25     15.75  519761.7    Yes
  2417                 JUNCTION              4.82     20.18       0.0
  2418                 JUNCTION              6.10     16.90       0.0
  2419                 JUNCTION              7.40     11.82       0.0
  2420                 JUNCTION             10.81      6.32  468035.8    Yes
  2493                 JUNCTION             18.80      9.09       0.0
  2498                 JUNCTION             13.91      4.50       0.0
  2499                 JUNCTION              6.57     11.37       0.0
  2513                 JUNCTION             11.63      6.85  461102.9    Yes
  2514                 JUNCTION             14.38      4.82  151929.3    Yes
  2515                 JUNCTION             15.51      4.00  218516.4    Yes
  2516                 JUNCTION             16.23      3.78   96497.0    Yes
  2525                 JUNCTION             17.00      3.00       0.0
  2526                 JUNCTION             16.20      4.80       0.0
  2541                 JUNCTION             12.55      7.40       0.0
  2544                 JUNCTION             17.35      5.65       0.0
  2545                 JUNCTION             16.85      9.15       0.0
  2546                 JUNCTION             16.41      7.59       0.0
  2547                 JUNCTION             15.70      7.30       0.0
  2548                 JUNCTION             14.99      8.01       0.0
  2549                 JUNCTION             14.17      8.83       0.0
  2663                 JUNCTION             14.55      9.62  142764.5    Yes
  2674                 JUNCTION             15.87      7.78  693360.3    Yes
  2675                 JUNCTION             17.77      6.01  495356.0    Yes
  2676                 JUNCTION             18.36      5.80       0.0
  2677                 JUNCTION             18.90      4.65   72682.0    Yes
  5225                 JUNCTION              2.10      1.83  769371.7    Yes
  5234                 JUNCTION              3.61      3.00       0.0
  5236                 JUNCTION              1.54      2.72       0.0
  5238                 JUNCTION              1.44      2.04       0.0
  5244                 JUNCTION              1.34      1.70       0.0
  5597                 JUNCTION              1.34      1.60       0.0
  5599                 JUNCTION              1.44      1.51       0.0
  5600                 JUNCTION              1.54      1.95       0.0
  5604                 JUNCTION              1.75      1.26  180332.3    Yes
  5605                 JUNCTION              1.64      1.83       0.0
  9765                 JUNCTION             30.70      3.00       0.0
  9766                 JUNCTION             30.49      3.00       0.0
  9767                 JUNCTION             28.90      5.13       0.0
  9769                 JUNCTION             28.30      5.70       0.0
  9770                 JUNCTION             28.50      6.86       0.0
  9771                 JUNCTION             28.10      4.90       0.0
  9772                 JUNCTION             10.76      4.58       0.0
  9773                 JUNCTION             24.00      3.00       0.0
  9776                 JUNCTION             36.63      2.97       0.0
  9777                 JUNCTION             12.71     13.29       0.0
  9785                 JUNCTION             23.32      8.66  663030.0    Yes
  9786                 JUNCTION             21.45     10.61       0.0
  9787                 JUNCTION             22.10      9.12  321568.0    Yes
  9788                 JUNCTION             27.80      5.80  266132.1    Yes
  9789                 JUNCTION             28.52      4.21       0.0
  9793                 JUNCTION             12.76     13.68 1167274.2    Yes
  9811                 JUNCTION              9.42     16.54       0.0
  9851                 JUNCTION             10.45     14.90       0.0
  9852                 JUNCTION             11.48     13.54       0.0
  9854                 JUNCTION             12.68     11.27       0.0
  9855                 JUNCTION             13.68     10.40       0.0
  9856                 JUNCTION             14.44      9.60       0.0
  9857                 JUNCTION             16.43      6.57       0.0
  9859                 JUNCTION             21.23      3.77       0.0
  9860                 JUNCTION             17.09      8.00       0.0
  9861                 JUNCTION             16.96      8.09       0.0
  X01340               JUNCTION             24.00      3.00       0.0
  000001               JUNCTION             19.00      3.00       0.0
  000002               JUNCTION             21.00      3.00       0.0
  000003               JUNCTION             20.00      3.00       0.0
  000004               JUNCTION             19.00      3.00       0.0
  000006               JUNCTION             19.00      3.00       0.0
  000007               JUNCTION             22.00      3.00       0.0
  000008               JUNCTION             21.00      3.00       0.0
  000009               JUNCTION             15.00      3.00       0.0
  000010               JUNCTION             16.00      3.00       0.0
  000011               JUNCTION             15.00      3.00       0.0
  000012               JUNCTION             15.00      3.00       0.0
  000013               JUNCTION             15.00      3.00       0.0
  000014               JUNCTION             12.58      9.42       0.0
  000015               JUNCTION             16.00      3.00       0.0
  000016               JUNCTION             14.00      3.00       0.0
  000017               JUNCTION             15.00      3.00       0.0
  000018               JUNCTION             13.00      3.00       0.0
  000019               JUNCTION             14.00      3.00       0.0
  000020               JUNCTION             14.00      3.00       0.0
  000020_1             JUNCTION             32.86      5.46       0.0
  000021               JUNCTION             25.14      5.25       0.0
  000022               JUNCTION             21.00      3.00       0.0
  000023               JUNCTION             31.03      3.00       0.0
  000024               JUNCTION             23.00      3.00       0.0
  000025               JUNCTION             19.00      3.00       0.0
  000025_1             JUNCTION             29.79      8.10  256585.4    Yes
  000026               JUNCTION             20.00      3.00       0.0
  000027               JUNCTION             18.00      3.00       0.0
  000027_1             JUNCTION             31.83      3.47       0.0
  000028               JUNCTION             20.00      3.00       0.0
  000029               JUNCTION             20.00      3.00       0.0
  000029A              JUNCTION             20.00      3.00       0.0
  000030               JUNCTION             19.00      3.00       0.0
  000031               JUNCTION             17.00      3.00       0.0
  000032               JUNCTION              2.00      3.00       0.0
  000033               JUNCTION              2.00      3.00       0.0
  000034               JUNCTION             34.00      3.00       0.0
  000034_1             JUNCTION             21.06      9.39       0.0
  000035               JUNCTION             34.00      3.00       0.0
  000036               JUNCTION             30.00      3.00       0.0
  000036A              JUNCTION             31.00      3.00       0.0
  000036_1             JUNCTION             26.16      5.25  150846.9    Yes
  000037               JUNCTION             29.00      3.00       0.0
  000037_1             JUNCTION             22.98      7.23  223837.3    Yes
  000038               JUNCTION             26.00      3.00       0.0
  000038_1             JUNCTION             22.60      8.36       0.0
  000039               JUNCTION             25.00      3.00       0.0
  000040               JUNCTION             23.00      3.00       0.0
  000041               JUNCTION             23.00      3.00       0.0
  000042               JUNCTION             23.00      3.00       0.0
  000043               JUNCTION             24.00      3.00       0.0
  000044               JUNCTION             24.00      3.00       0.0
  000045               JUNCTION             24.00      3.00       0.0
  000046               JUNCTION             24.00      3.00       0.0
  000047               JUNCTION             24.00      3.00       0.0
  000048               JUNCTION             22.00      3.00       0.0
  000048_1             JUNCTION             26.61      4.66  232070.2    Yes
  000049               JUNCTION             24.00      3.00       0.0
  000049_1             JUNCTION             26.16      3.98  446581.8    Yes
  000050               JUNCTION             25.00      3.00       0.0
  000050_1             JUNCTION             27.75      4.64   70015.2    Yes
  000053               JUNCTION             33.00      3.00       0.0
  000054               JUNCTION             33.00      3.00       0.0
  000054_1             JUNCTION             27.88      4.72       0.0
  000055               JUNCTION             33.00      3.00       0.0
  000055_1             JUNCTION             29.17      8.51  125626.0    Yes
  000056               JUNCTION             33.00      3.00       0.0
  000057               JUNCTION             33.00      3.00       0.0
  000057_1             JUNCTION             23.64      5.36  595803.4    Yes
  000058               JUNCTION             33.00      3.00       0.0
  000059               JUNCTION             33.00      3.00       0.0
  000059_1             JUNCTION             24.74      6.75  863406.7    Yes
  000060               JUNCTION             33.00      3.00       0.0
  000061               JUNCTION             33.00      3.00       0.0
  000062               JUNCTION             29.00      3.00       0.0
  000063               JUNCTION             30.00      3.00       0.0
  000063_1             JUNCTION             25.10      6.39       0.0
  000064               JUNCTION             30.00      3.00       0.0
  000065               JUNCTION             39.00      3.00       0.0
  000066               JUNCTION             27.00      3.00       0.0
  000067               JUNCTION             30.00      3.00       0.0
  000068A              JUNCTION             20.00      3.00       0.0
  000069               JUNCTION             21.00      3.00       0.0
  000070               JUNCTION             20.00      3.00       0.0
  000071               JUNCTION             20.00      3.00       0.0
  000072               JUNCTION             33.00      3.00       0.0
  000073               JUNCTION             29.00      3.00       0.0
  000073_1             JUNCTION             28.76      5.61       0.0
  000074               JUNCTION             27.00      3.00       0.0
  000075               JUNCTION             26.00      3.00       0.0
  000075_1             JUNCTION             29.36      5.85       0.0
  000076               JUNCTION             27.00      3.00       0.0
  000077               JUNCTION             16.04      7.96       0.0
  000078               JUNCTION             17.36      5.64       0.0
  000078_1             JUNCTION             24.71      6.06       0.0
  000079               JUNCTION             19.38      2.62       0.0
  000080               JUNCTION             21.23      2.77       0.0
  000081               JUNCTION             27.00      3.00       0.0
  000082               JUNCTION             24.00      3.00       0.0
  000083               JUNCTION             32.00      3.00       0.0
  000084               JUNCTION             24.89      3.00       0.0
  000085               JUNCTION             23.00      3.00       0.0
  000086               JUNCTION             24.00      3.00       0.0
  000087               JUNCTION             37.00      3.00       0.0
  000088               JUNCTION             29.00      3.00       0.0
  000090_1             JUNCTION             22.77     10.65       0.0
  000091A              JUNCTION             28.00      3.00       0.0
  000091_1             JUNCTION             22.06     11.06  843404.1    Yes
  000092               JUNCTION             33.00      3.00       0.0
  000093               JUNCTION             16.00      3.00       0.0
  000094A              JUNCTION             37.00      3.00       0.0
  000094_1             JUNCTION             22.09     11.03       0.0
  000095A              JUNCTION             33.00      3.00       0.0
  000096               JUNCTION             33.00      3.00       0.0
  000096_1             JUNCTION             20.72     13.18  262736.0    Yes
  000097A              JUNCTION             32.00      3.00       0.0
  000098               JUNCTION             30.00      3.00       0.0
  000099_1             JUNCTION             25.40      5.13  171056.0    Yes
  000100A              JUNCTION             33.00      3.00       0.0
  000101               JUNCTION             42.00      3.00       0.0
  000102               JUNCTION             17.00      3.00       0.0
  000103               JUNCTION             23.00      3.00       0.0
  000105_1             JUNCTION             26.85      6.75       0.0
  000106               JUNCTION             20.00      3.00       0.0
  000108               JUNCTION             20.00      3.00       0.0
  000109               JUNCTION             20.00      3.00       0.0
  000109_1             JUNCTION             23.32      8.58       0.0
  000110               JUNCTION             19.00      3.00       0.0
  000112               JUNCTION             20.00      3.00       0.0
  000113               JUNCTION             20.00      3.00       0.0
  000114               JUNCTION             26.00      3.00       0.0
  000114_1             JUNCTION             27.95      5.80       0.0
  000115               JUNCTION             25.00      3.00       0.0
  000116               JUNCTION             28.00      3.00       0.0
  000117               JUNCTION             28.00      3.00       0.0
  000118               JUNCTION             27.00      3.00       0.0
  000119               JUNCTION             27.00      3.00       0.0
  000120               JUNCTION             27.00      3.00       0.0
  000121               JUNCTION             26.09      3.00       0.0
  000122               JUNCTION             28.00      3.00       0.0
  000123               JUNCTION             23.00      3.00       0.0
  000124               JUNCTION              2.18      3.00       0.0
  000126               JUNCTION              1.00      3.00       0.0
  000128               JUNCTION             20.00      3.00       0.0
  000129               JUNCTION             20.00      3.00       0.0
  000130               JUNCTION             17.00      3.00       0.0
  000131               JUNCTION             19.00      3.00       0.0
  000132               JUNCTION             20.00      3.00       0.0
  000133               JUNCTION             21.00      3.00       0.0
  000134               JUNCTION             17.00      3.00       0.0
  000135               JUNCTION             22.00      3.00       0.0
  000136               JUNCTION             23.00      3.00       0.0
  000136_1             JUNCTION             29.75      3.62       0.0
  000141_1             JUNCTION             11.63      4.77       0.0
  000151               JUNCTION             23.00      3.00       0.0
  000151_1             JUNCTION             40.74      4.30       0.0
  000152               JUNCTION             23.00      3.00       0.0
  000152_1             JUNCTION             47.25      3.15       0.0
  000153               JUNCTION             23.00      3.00       0.0
  000154A              JUNCTION             21.00      3.00       0.0
  000154_1             JUNCTION             23.64      6.66       0.0
  000155               JUNCTION             27.00      3.00       0.0
  000155_1             JUNCTION             23.06      6.47       0.0
  000156A              JUNCTION             12.03      9.97       0.0
  000158               JUNCTION             20.00      3.00       0.0
  000158A              JUNCTION             20.00      3.00       0.0
  000159               JUNCTION             20.00      3.00       0.0
  000160_1             JUNCTION             20.62      9.59  497319.0    Yes
  000167               JUNCTION             27.00      3.00       0.0
  000168               JUNCTION             25.00      3.00       0.0
  000169               JUNCTION             23.00      3.00       0.0
  000170A              JUNCTION             20.00      3.00       0.0
  000172               JUNCTION             18.00      3.00       0.0
  000173               JUNCTION             15.00      3.00       0.0
  000174               JUNCTION             15.00      3.00       0.0
  000175A              JUNCTION             14.65      3.00       0.0
  000176A              JUNCTION             14.65      3.00       0.0
  000177               JUNCTION             19.00      3.00       0.0
  000178               JUNCTION             17.00      3.00       0.0
  000179               JUNCTION             18.00      3.00       0.0
  000180               JUNCTION             18.00      3.00       0.0
  000181               JUNCTION             18.00      3.00       0.0
  000181_1             JUNCTION             18.81     11.12       0.0
  000182               JUNCTION             18.00      3.00       0.0
  000182_1             JUNCTION             17.76     10.99       0.0
  000183               JUNCTION             18.00      3.00       0.0
  000184               JUNCTION             18.00      3.00       0.0
  000185               JUNCTION             17.00      3.00       0.0
  000186               JUNCTION             16.00      3.00       0.0
  000187               JUNCTION             15.00      3.00       0.0
  000188               JUNCTION             16.00      3.00       0.0
  000189A              JUNCTION             19.00      3.00       0.0
  000190               JUNCTION             18.00      3.00       0.0
  000191               JUNCTION             24.00      3.00       0.0
  000192               JUNCTION             24.00      3.00       0.0
  000193               JUNCTION             18.00      3.00       0.0
  000194               JUNCTION             13.00      3.00       0.0
  000195A              JUNCTION             16.00      3.00       0.0
  000195_1             JUNCTION             14.24     11.76 1273993.9    Yes
  000196               JUNCTION             20.00      3.00       0.0
  000197               JUNCTION             19.00      3.00       0.0
  000198               JUNCTION             20.00      3.00       0.0
  000199               JUNCTION             20.00      3.00       0.0
  000200               JUNCTION             20.00      3.00       0.0
  000201               JUNCTION             17.00      3.00       0.0
  000202               JUNCTION             20.00      3.00       0.0
  000202_1             JUNCTION             14.56     12.44 2022435.8    Yes
  000203               JUNCTION             21.00      3.00       0.0
  000204               JUNCTION             18.00      3.00       0.0
  000205               JUNCTION             19.00      3.00       0.0
  000206               JUNCTION             21.00      3.00       0.0
  000206_1             JUNCTION             19.30     11.07       0.0
  000207               JUNCTION             19.00      3.00       0.0
  000208               JUNCTION             15.00      3.00       0.0
  000209               JUNCTION             25.00      3.00       0.0
  000210               JUNCTION             24.00      3.00       0.0
  000214               JUNCTION             19.00      3.00       0.0
  000216               JUNCTION             23.00      3.00       0.0
  000217               JUNCTION             25.00      3.00       0.0
  000218               JUNCTION             24.00      3.00       0.0
  000218_1             JUNCTION              1.97      3.03       0.0
  000219               JUNCTION             22.00      3.00       0.0
  000219_1             JUNCTION              3.87      6.08       0.0
  000220               JUNCTION             24.00      3.00       0.0
  000221               JUNCTION             25.00      3.00       0.0
  000223               JUNCTION             30.00      3.00       0.0
  000224               JUNCTION             30.00      3.00       0.0
  000225               JUNCTION             30.00      3.00       0.0
  000226               JUNCTION             30.00      3.00       0.0
  000227               JUNCTION             30.00      3.00       0.0
  000228               JUNCTION             34.00      3.00       0.0
  000229               JUNCTION             34.00      3.00       0.0
  000230               JUNCTION             14.65      3.00       0.0
  000232               JUNCTION             18.00      3.00       0.0
  000232_1             JUNCTION             10.17      3.00  229051.4    Yes
  000234               JUNCTION             30.00      3.00       0.0
  000234_1             JUNCTION              7.85      4.15       0.0
  000235               JUNCTION             29.00      3.00       0.0
  000236               JUNCTION             33.00      3.00       0.0
  000237               JUNCTION             34.00      3.00       0.0
  000238               JUNCTION             43.00      3.00       0.0
  000239               JUNCTION             43.00      3.00       0.0
  000240               JUNCTION             31.00      3.00       0.0
  000240A              JUNCTION             31.00      3.00       0.0
  000241               JUNCTION             37.00      3.00       0.0
  000242               JUNCTION             33.00      3.00       0.0
  000244               JUNCTION             26.00      3.00       0.0
  000245A              JUNCTION             47.00      3.00       0.0
  000246               JUNCTION             39.00      3.00       0.0
  000247               JUNCTION             27.21      3.00       0.0
  000248               JUNCTION             21.00      3.00       0.0
  000249               JUNCTION             27.57      3.00       0.0
  000250               JUNCTION             22.00      3.00       0.0
  000251               JUNCTION             21.00      3.00       0.0
  000252               JUNCTION             21.00      3.00       0.0
  000253               JUNCTION             22.00      3.00       0.0
  000254               JUNCTION             21.00      3.00       0.0
  000255               JUNCTION             27.58      3.00       0.0
  000256A              JUNCTION             20.00      3.00       0.0
  000257A              JUNCTION             15.00      3.00       0.0
  000258               JUNCTION             20.00      3.00       0.0
  000258_1             JUNCTION              1.66     10.34       0.0
  000259               JUNCTION             21.00      3.00       0.0
  000259_1             JUNCTION             10.30      9.30  809812.6    Yes
  000260               JUNCTION             16.00      3.00       0.0
  000260_1             JUNCTION             10.80      6.33       0.0
  000261               JUNCTION             17.00      3.00       0.0
  000262               JUNCTION             20.00      3.00       0.0
  000263               JUNCTION             20.00      3.00       0.0
  000264               JUNCTION             21.00      3.00       0.0
  000265               JUNCTION             21.00      3.00       0.0
  000266               JUNCTION             21.00      3.00       0.0
  000266_1             JUNCTION             11.85     10.15 2640795.2    Yes
  000267               JUNCTION             21.00      3.00       0.0
  000267_1             JUNCTION             11.85      7.66       0.0
  000268               JUNCTION             21.00      3.00  714316.5    Yes
  000269               JUNCTION             18.00      3.00       0.0
  000270               JUNCTION             19.00      3.00       0.0
  000271               JUNCTION             26.00      3.00       0.0
  000272               JUNCTION             32.00      3.00       0.0
  000273               JUNCTION             32.00      3.00       0.0
  000274               JUNCTION             39.00      3.00       0.0
  000275               JUNCTION             29.00      3.00       0.0
  000276               JUNCTION             31.00      3.00       0.0
  000277               JUNCTION             30.00      3.00       0.0
  000278               JUNCTION             28.00      3.00       0.0
  000279               JUNCTION             28.00      3.00       0.0
  000280               JUNCTION             30.00      3.00       0.0
  000281               JUNCTION             31.00      3.00       0.0
  000282               JUNCTION             28.41      3.00       0.0
  000283               JUNCTION             27.96      3.00       0.0
  000286               JUNCTION             27.48      3.00       0.0
  000287               JUNCTION             27.54      3.00       0.0
  000288               JUNCTION             27.37      3.00       0.0
  000289               JUNCTION             27.58      3.00       0.0
  000291               JUNCTION             28.00      3.00       0.0
  000292               JUNCTION             26.37      3.00       0.0
  000293               JUNCTION             28.00      3.00       0.0
  000294               JUNCTION             28.00      3.00       0.0
  000294_1             JUNCTION             13.48      4.52  313773.6    Yes
  000295               JUNCTION             28.00      3.00       0.0
  000296               JUNCTION             32.00      3.00       0.0
  000297               JUNCTION             27.12      3.00       0.0
  000298               JUNCTION             27.12      3.00       0.0
  000299               JUNCTION             32.00      3.00       0.0
  000300               JUNCTION             32.00      3.00       0.0
  000301               JUNCTION             32.00      3.00       0.0
  000302               JUNCTION             32.00      3.00       0.0
  000303               JUNCTION             17.00      3.00       0.0
  000303A              JUNCTION             16.00      3.00       0.0
  000304               JUNCTION             16.00      3.00       0.0
  000306               JUNCTION             15.00      3.00       0.0
  000307               JUNCTION             16.00      3.00       0.0
  000308               JUNCTION             16.00      3.00       0.0
  000309               JUNCTION             13.00      3.00       0.0
  000310               JUNCTION             24.00      3.00       0.0
  000311               JUNCTION             22.00      3.00       0.0
  000312               JUNCTION             25.00      3.00       0.0
  000313               JUNCTION             24.00      3.00       0.0
  000314               JUNCTION             22.00      3.00       0.0
  000315               JUNCTION             24.00      3.00       0.0
  000316               JUNCTION             21.00      3.00       0.0
  000317               JUNCTION             21.00      3.00       0.0
  000318               JUNCTION             24.00      3.00       0.0
  000319               JUNCTION             28.00      3.00       0.0
  000320               JUNCTION             20.00      3.00       0.0
  000321               JUNCTION             20.00      3.00       0.0
  000322               JUNCTION             23.00      3.00       0.0
  000324               JUNCTION             22.00      3.00       0.0
  000325               JUNCTION             21.00      3.00       0.0
  000326               JUNCTION             21.00      3.00       0.0
  000327               JUNCTION             25.00      3.00       0.0
  000328               JUNCTION             26.00      3.00       0.0
  000329               JUNCTION             26.00      3.00       0.0
  000330               JUNCTION             23.00      3.00       0.0
  000331               JUNCTION             26.00      3.00       0.0
  000332               JUNCTION             29.00      3.00       0.0
  000333               JUNCTION             31.00      3.00       0.0
  000335               JUNCTION             27.00      3.00       0.0
  000336               JUNCTION             25.00      3.00       0.0
  000337A              JUNCTION             28.00      3.00       0.0
  000339               JUNCTION             29.00      3.00       0.0
  000340               JUNCTION             28.00      3.00       0.0
  000341               JUNCTION             26.00      3.00       0.0
  000342               JUNCTION             28.00      3.00       0.0
  000343               JUNCTION              5.00      3.00       0.0
  000344               JUNCTION             -1.00      3.00       0.0
  000345               JUNCTION             36.00      3.00       0.0
  000346               JUNCTION             27.00      3.00       0.0
  000347               JUNCTION             27.00      3.00       0.0
  000348               JUNCTION             29.00      3.00       0.0
  000349               JUNCTION             17.00      3.00       0.0
  000350               JUNCTION             20.00      3.00       0.0
  000351               JUNCTION             24.00      3.00       0.0
  000352               JUNCTION             17.00      3.00       0.0
  000352_1             JUNCTION             15.22      7.78  146734.3    Yes
  000353               JUNCTION             36.00      3.00       0.0
  000354               JUNCTION             36.00      3.00       0.0
  000355               JUNCTION             32.00      3.00       0.0
  000356               JUNCTION             32.00      3.00       0.0
  000357               JUNCTION             31.00      3.00       0.0
  000357_1             JUNCTION             16.83      8.40  174072.5    Yes
  000358               JUNCTION             36.00      3.00       0.0
  000359_1             JUNCTION             17.10      7.94  201036.5    Yes
  000360               JUNCTION             36.00      3.00       0.0
  000361               JUNCTION             21.00      3.00       0.0
  000361_1             JUNCTION             17.66      6.53  179239.8    Yes
  000362               JUNCTION             23.00      3.00       0.0
  000362_1A            JUNCTION             11.97     12.46       0.0
  000363               JUNCTION             20.00      3.00       0.0
  000363_1             JUNCTION             11.80     12.80  542608.1    Yes
  000364               JUNCTION             19.00      3.00       0.0
  000364_1             JUNCTION             11.80     10.20       0.0
  000365               JUNCTION             21.00      3.00       0.0
  000366               JUNCTION             21.00      3.00       0.0
  000367               JUNCTION             21.00      3.00       0.0
  000368               JUNCTION             24.00      3.00       0.0
  000369               JUNCTION             19.00      3.00       0.0
  000369_1             JUNCTION             16.77      6.31  228924.3    Yes
  000370               JUNCTION             19.00      3.00       0.0
  000370_1             JUNCTION             15.95      8.51  503047.6    Yes
  000371               JUNCTION             18.00      3.00       0.0
  000372               JUNCTION             14.43     10.89       0.0
  000373               JUNCTION             20.00      3.00       0.0
  000374               JUNCTION             21.00      3.00       0.0
  000375               JUNCTION             22.00      3.00       0.0
  000376               JUNCTION             22.00      3.00       0.0
  000377               JUNCTION             21.00      3.00       0.0
  000378               JUNCTION             21.00      3.00       0.0
  000379               JUNCTION             22.00      3.00       0.0
  000379_1             JUNCTION             11.47      7.53       0.0
  000380               JUNCTION             21.00      3.00       0.0
  000380_1             JUNCTION             10.40      9.84       0.0
  000382               JUNCTION             23.00      3.00       0.0
  000383               JUNCTION             18.00      3.00       0.0
  000384               JUNCTION             27.00      3.00       0.0
  000385               JUNCTION             18.00      3.00       0.0
  000386               JUNCTION             16.00      3.00       0.0
  000386A              JUNCTION             16.00      3.00       0.0
  000388               JUNCTION             16.00      3.00       0.0
  000389               JUNCTION             17.00      3.00       0.0
  000390               JUNCTION             12.00      3.00       0.0
  000393               JUNCTION             17.00      3.00       0.0
  000394               JUNCTION             17.00      3.00       0.0
  000395               JUNCTION             17.00      3.00       0.0
  000396               JUNCTION             22.00      3.00       0.0
  000397               JUNCTION             20.00      3.00       0.0
  000398               JUNCTION             23.00      3.00       0.0
  000399               JUNCTION             20.00      3.00       0.0
  000401               JUNCTION             24.00      3.00       0.0
  000401_1             JUNCTION             13.31     12.87  470565.6    Yes
  000402               JUNCTION             22.00      3.00       0.0
  000402_1             JUNCTION             13.18     12.82       0.0
  000403               JUNCTION             25.00      3.00       0.0
  000404               JUNCTION             28.00      3.00       0.0
  000405               JUNCTION             28.00      3.00       0.0
  000406               JUNCTION             28.00      3.00       0.0
  000407               JUNCTION             21.00      3.00       0.0
  000409               JUNCTION             -4.00      3.00       0.0
  000410               JUNCTION             17.00      3.00       0.0
  000411               JUNCTION             18.00      3.00       0.0
  000412               JUNCTION             16.00      3.00       0.0
  000413               JUNCTION             20.00      3.00       0.0
  000414               JUNCTION             21.00      3.00       0.0
  000415               JUNCTION             18.00      3.00       0.0
  000416               JUNCTION             27.00      3.00       0.0
  000417               JUNCTION             28.00      3.00       0.0
  000418A              JUNCTION             28.00      3.00       0.0
  000419A              JUNCTION             26.00      3.00       0.0
  000421               JUNCTION             20.00      3.00       0.0
  000422               JUNCTION             17.00      3.00       0.0
  000423               JUNCTION             16.00      3.00       0.0
  000425               JUNCTION             17.00      3.00       0.0
  000427               JUNCTION             20.00      3.00       0.0
  000428               JUNCTION             16.00      3.00       0.0
  000429               JUNCTION             17.00      3.00       0.0
  000430               JUNCTION             17.00      3.00       0.0
  000431               JUNCTION             17.00      3.00       0.0
  000432               JUNCTION             17.00      3.00       0.0
  000433               JUNCTION             18.00      3.00       0.0
  000434               JUNCTION             18.00      3.00       0.0
  000435               JUNCTION             18.00      3.00       0.0
  000436               JUNCTION             16.00      3.00       0.0
  000437               JUNCTION             16.00      3.00       0.0
[...]
  000769.1                   19.24     19.24     20.77      0.01         0.01
  000770.2                   18.74     18.74     19.31      0.01         0.01
  000771.1                   19.29     19.29     19.31     20.11        12.83
  000772.1                   19.25     19.25     19.29     20.87        13.28
  000773.1                   19.24     19.24     22.00      0.01         0.01
  000774.1                   19.25     19.25     22.00      0.01         0.01
  000775.2                   21.19     21.19     21.19     19.80        14.12
  000776.1                   19.11     19.11     19.15     19.96        14.27
  000777.1                   19.15     19.15     20.76      0.01         0.01
  000778.1                   20.76     20.76     21.19      0.01         0.01
  000779.1                   19.09     19.09     19.10     18.72        14.44
  000780.1                   19.10     19.10     19.11     19.11        14.30
  000782.2                   18.74     18.74     20.74      0.01         0.01
  000783.1                   18.74     18.74     19.09      0.01         0.01
  000784.1                   20.74     20.74     20.74     15.49        11.77
  000785.1                   19.31     19.31     19.31      0.01         8.14
  000787.1                   22.09     22.09     23.69      0.01         2.98
  000788.1                   18.12     18.12     22.78      0.19         0.01
  000789.2                   16.86     16.86     17.02      0.01         0.01
  000790.2                   13.65     13.65     13.65      8.52         6.78
  000791.2                   18.10     18.12     18.10     18.35        15.44
  000792.1                   17.80     17.80     22.78      0.01         0.01
  000794.1                   16.21     16.21     16.21      0.01         6.23
  000795.1                   13.47     13.47     16.21      0.01         0.01
  000796.1                   13.46     13.46     13.46     12.23         7.67
  000797.1                   13.46     13.46     13.50      0.01         0.01
  000798.2                   13.72     13.72     14.17      0.01         0.01
  000799.1                   13.92     13.92     13.92     13.74        11.06
  000800.1                   13.92     13.92     13.92     10.69         7.54
  000801.2                   13.46     13.47     13.46     14.81        10.63
  000802.2                   13.47     13.47     13.47     12.15         8.65
  000803.1                   12.64     12.64     17.01      0.01         0.15
  000804.1                   17.01     17.01     17.01      7.71         7.64
  000807.1                   19.88     19.88     20.66      0.01         0.07
  000808.2                   20.64     20.66     21.34      0.01         0.03
  000809.1                    7.84      7.84      7.84      0.61         3.42
  000810.2                    7.84      7.84      7.84      1.79         3.97
  000811.1                    7.84      7.84      8.64      0.01         0.01
  000813.2                   11.29     11.29     17.31      0.01         0.12
  000814.2                    8.64      8.64     16.12      0.01         0.01
  000815.1                    4.68      4.70      4.70      3.04         2.38
  000816.1                    4.13      4.13      4.70      0.01         0.01
  000817.1                    3.55      3.55      4.13      0.01         0.01
  000818.1                    3.54      3.55      3.55      0.84         1.80
  000819.2                    3.55      3.55      3.55      0.10         1.57
  000821.1                   12.27     12.28     12.27      9.84         8.62
  000821A.1                  12.25     12.27     12.25      9.47         7.60
  000823.2                   11.94     11.94     11.97      0.13         4.91
  000826.2                   19.00     19.00     19.88      0.01         0.01
  000828.2                   12.22     12.22     13.99      0.01         0.01
  000829.1                   18.61     18.61     18.62     18.36        11.96
  000830.1                   18.62     18.62     18.62     13.33        12.96
  000831.1                   18.61     18.61     20.78      0.01         0.01
  000832.2                   18.62     18.62     18.62      8.63        10.93
  000833.2                   18.61     18.61     20.78      0.01         0.21
  000834.1                   18.61     18.61     18.61     10.96        12.06
  000834.2                   12.40     12.40     16.18      0.01         0.01
  000836.1                   16.07     16.07     18.62      0.01         1.06
  000837.1                   12.28     12.33     12.28     11.45         9.75
  000838.1                   13.68     13.68     13.89      0.01         0.01
  000839.2                   13.67     13.68     13.67     12.21        11.06
  000840.1                   13.67     13.68     13.67      0.01         5.46
  000841.2                   13.89     13.89     14.14      0.01         0.01
  000842.2                   14.14     14.14     14.16      0.01         0.01
  000843.1                   14.16     14.16     14.18      0.01         0.01
  000844.1                   14.46     14.46     14.46     13.77        11.78
  000845.1                   13.92     13.92     15.28      0.01         0.01
  000846.1                   13.92     13.92     15.28      0.01         0.01
  000847.1                   13.92     13.92     15.26      0.01         0.01
  000848.1                   13.91     13.92     13.91     12.92        10.29
  000849.1                   13.92     13.92     13.92      0.01         5.37
  000850.2                   13.62     13.62     13.72      0.01         0.01
  000851.1                   13.91     13.91     15.21      0.01         0.01
  000852.1                   11.36     11.36     12.06      0.01         0.03
  000853.1                   11.36     11.39     11.36     10.92         8.58
  000854.1                   11.39     11.41     11.39      9.43         8.62
  000855.1                   11.12     11.12     11.41      0.01         0.01
  000856.1                    8.25      8.25     11.12      0.01         0.01
  000857.1                    7.58      7.58      8.25      0.01         0.01
  000859.1                   12.64     12.65     12.65      7.58         7.13
  000860.1                   13.23     13.23     13.23      7.75         5.42
  000860.2                   12.65     12.65     13.21      0.01         0.01
  000861.1                   13.23     13.23     14.83      0.01         0.01
  000862.2                   14.83     14.83     14.83      9.86         8.67
  000863.1                   11.29     11.29     11.42      0.01         0.01
  000864.1                   11.42     11.42     11.42      3.34         5.18
  000865.2                   11.39     11.39     13.54      0.01         0.01
  000866.2                   11.42     11.42     11.42      3.15         3.93
  000866.3                   11.39     11.39     11.42      0.01         0.01
  000867.1                    7.46      7.46     11.29      0.01         0.01
  000868.1                    7.46      7.46     11.28      0.01         0.01
  000869.2                   11.42     11.42     11.42      5.20         5.68
  000870.1                   11.42     11.42     11.42      3.30         5.19
  000871.2                   12.64     12.65     12.65      6.28         6.62
  000872.1                   13.23     13.23     13.23      4.19         5.42
  000873.1                   13.22     13.22     16.65      0.01         0.01
  000874A.1                  18.07     18.07     19.63      0.01         0.01
  
  
  ***************
  Pumping Summary
  ***************
  
  ---------------------------------------------------------------------------------------------------------
                                                  Min       Avg       Max     Total     Power    % Time Off
                        Percent   Number of      Flow      Flow      Flow    Volume     Usage    Pump Curve
  Pump                 Utilized   Start-Ups       MGD       MGD       MGD  10^6 gal     Kw-hr    Low   High
  ---------------------------------------------------------------------------------------------------------
  000005.1                 1.70        2924      0.00      1.42      1.44     0.024      1.85    0.0   83.9
  000005.2                 0.00           0      0.00      0.00      0.00     0.000      0.00    0.0    0.0
  000051.1                10.24        8762      0.00      0.27      1.15     0.027      5.02    0.0    7.1
  000051.2                10.24        8762      0.00      0.27      1.15     0.027      5.02    0.0    7.1
  000068.1               100.00           1      0.00      0.01      0.03     0.012      0.23    0.0  100.0
  000068.2               100.00           1      0.00      0.01      0.03     0.012      0.23    0.0  100.0
  000091.1               100.00           1      0.00      0.05      0.08     0.049      3.15    0.0  100.0
  000091.2               100.00           1      0.00      0.05      0.08     0.049      3.15    0.0   85.4
  000097.1                 0.83        1435      0.00      0.54      0.69     0.004      0.26    0.0   25.5
  000097.2                 0.00           0      0.00      0.00      0.00     0.000      0.00    0.0    0.0
  000100.1                 0.00           0      0.00      0.00      0.00     0.000      0.00    0.0    0.0
  000100.2                 0.00           0      0.00      0.00      0.00     0.000      0.00    0.0    0.0
  000125.1                 0.00           0      0.00      0.00      0.00     0.000      0.00    0.0    0.0
  000125.2                 0.00           0      0.00      0.00      0.00     0.000      0.00    0.0    0.0
  000125.3                 0.00           0      0.00      0.00      0.00     0.000      0.00    0.0    0.0
  000154.1                27.78       31368      0.00      0.84      1.15     0.232     35.89    0.0    1.2
  000154.2                27.78       31368      0.00      0.84      1.15     0.232     35.89    0.0    1.2
  000156.1                23.94       31930      0.00      0.52      0.60     0.124      8.11    0.0   23.4
  000156.2                 0.00           0      0.00      0.00      0.00     0.000      0.00    0.0    0.0
  000158B.1                8.35         245      0.00      0.77      0.86     0.064      3.24    0.0    3.4
  000158B.2                0.00           0      0.00      0.00      0.00     0.000      0.00    0.0    0.0
  000170.1                 8.25       12758      0.00      0.22      0.94     0.018      2.14    0.0   11.7
  000170.2                 8.25       12758      0.00      0.22      0.94     0.018      2.14    0.0   11.7
  000171.1                 1.36          94      0.00      0.79      0.80     0.011      0.27    0.0    0.0
  000171.2                 0.00           0      0.00      0.00      0.00     0.000      0.00    0.0    0.0
  000189.1                 0.00           0      0.00      0.00      0.00     0.000      0.00    0.0    0.0
  000189.2                 0.00           0      0.00      0.00      0.00     0.000      0.00    0.0    0.0
  000195.1               100.00           1      0.00      0.03      0.14     0.030      2.56    0.0  100.0
  000195.2               100.00           1      0.00      0.03      0.14     0.030      2.56    0.0  100.0
  000245.1                 1.70        2940      0.00      0.37      0.72     0.006      1.15    0.0   23.7
  000245.2                 1.70        2940      0.00      0.37      0.72     0.006      1.15    0.0   23.7
  000255A.1                1.78          25      0.00      1.69      1.73     0.030      1.92    0.0   80.2
  000255A.2                0.00           0      0.00      0.00      0.00     0.000      0.00    0.0    0.0
  000290.1                 3.42        5904      0.00      0.98      1.15     0.033      3.30    0.0    8.3
  000290.2                 3.42        5904      0.00      0.98      1.15     0.033      3.30    0.0    8.3
  000305.1                94.44           1      0.00      0.00      0.02     0.003      0.19    0.0   69.7
  000305.2                94.44           1      0.00      0.00      0.02     0.003      0.19    0.0   87.6
  000359.1                 0.00           0      0.00      0.00      0.00     0.000      0.00    0.0    0.0
  000359.2                 0.00           0      0.00      0.00      0.00     0.000      0.00    0.0    0.0
  000387.1               100.00           1      0.00      0.01      0.01     0.008      0.47    0.0  100.0
  000387.2               100.00           1      0.00      0.01      0.01     0.008      0.47    0.0  100.0
  000420.1                 7.60        4392      0.00      0.07      0.33     0.005      0.90    0.0    0.0
  000420.2                 7.60        4392      0.00      0.07      0.33     0.005      0.90    0.0    0.0
  000459.1                 2.09        3395      0.00      0.15      0.58     0.003      0.32    0.0    4.0
  000459.2                 0.00           0      0.00      0.00      0.00     0.000      0.00    0.0    0.0
  000460.1                 9.30       14800      0.00      0.70      1.15     0.066     16.36    0.0   24.9
  000460.2                 0.00           0      0.00      0.00      0.00     0.000      0.00    0.0    0.0
  000470.1                15.02       21039      0.00      0.72      0.72     0.108     10.87    0.0   98.2
  000470.2                 0.00           0      0.00      0.00      0.00     0.000      0.00    0.0    0.0
  000490.1                 0.00           0      0.00      0.00      0.00     0.000      0.00    0.0    0.0
  000490.2                 0.00           0      0.00      0.00      0.00     0.000      0.00    0.0    0.0
  000500.1                 0.00           0      0.00      0.00      0.00     0.000      0.00    0.0    0.0
  000500.2                 0.00           0      0.00      0.00      0.00     0.000      0.00    0.0    0.0
  000513.1               100.00           1      0.00      0.09      0.17     0.087      6.89    0.0  100.0
  000513.2               100.00           1      0.00      0.09      0.17     0.087      6.89    0.0  100.0
  000517.1                14.00       18531      0.00      0.60      0.89     0.084     14.92    0.0   18.7
  000517.2                13.62       17969      0.00      0.42      0.86     0.057      8.79    0.0   19.3
  000530.1                 9.28         330      0.00      0.77      0.77     0.071      2.22    0.0    0.0
  000530.2                 0.00           0      0.00      0.00      0.00     0.000      0.00    0.0    0.0
  000543.1                31.74       13186      0.00      0.81      0.86     0.256     43.32    0.0   66.1
  000543.2                31.74       13186      0.00      0.81      0.86     0.256     43.32    0.0   66.1
  000593.1                 3.71         120      0.00      1.10      1.15     0.041      4.92    0.0   87.8
  000593.2                 0.00           0      0.00      0.00      0.00     0.000      0.00    0.0    0.0
  000603.1                26.99        8484      0.00      0.07      0.58     0.019      1.13    0.0    5.8
  000603.2                19.60         231      0.00      0.02      0.08     0.004      0.39    0.0    0.0
  000604.1                91.67           1      0.00      0.00      0.01     0.002      0.13    0.0  100.0
  000604.2                91.67           1      0.00      0.00      0.01     0.002      0.13    0.0  100.0
  000630.1                 0.00           0      0.00      0.00      0.00     0.000      0.00    0.0    0.0
  000630.2                 0.00           0      0.00      0.00      0.00     0.000      0.00    0.0    0.0
  000634.1               100.00           1      0.00      0.09      0.14     0.089      2.50    0.0   83.7
  000634.2               100.00           1      0.00      0.09      0.14     0.089      2.50    0.0   83.7
  000643.1                 0.00           0      0.00      0.00      0.00     0.000      0.00    0.0    0.0
  000643.2                 0.00           0      0.00      0.00      0.00     0.000      0.00    0.0    0.0
  000652.1               100.00           1      0.00      0.02      0.04     0.019      3.88    0.0   31.4
  000652.2               100.00           1      0.00      0.02      0.04     0.019      3.88    0.0   31.4
  000654.1                 4.95        8547      0.00      0.87      0.95     0.043      6.09    0.0   37.3
  000654.2                 0.00           0      0.00      0.00      0.00     0.000      0.00    0.0    0.0
  000655.1                10.56         372      0.00      0.81      0.86     0.086      7.90    0.0   51.4
  000655.2                 0.00           0      0.00      0.00      0.00     0.000      0.00    0.0    0.0
  000667.1               100.00           1      0.00      0.00      0.01     0.003      0.17    0.0  100.0
  000667.2               100.00           1      0.00      0.00      0.01     0.003      0.17    0.0  100.0
  000685.1                 6.61       11111      0.00      1.40      1.40     0.093      7.12    0.0  100.0
  000685.2                 6.61       11111      0.00      1.40      1.40     0.093      7.12    0.0  100.0
  000709.1                 5.55         149      0.00      0.93      1.15     0.051      9.36    0.0   54.7
  000709.2                 0.00           0      0.00      0.00      0.00     0.000      0.00    0.0    0.0
  000715.1                 4.18          12      0.00      0.01      0.01     0.000      0.00    0.0  100.0
  000715.2                 4.18          12      0.00      0.01      0.01     0.000      0.00    0.0  100.0
  000717.1                 2.04          60      0.00      0.98      1.15     0.020      2.73    0.0   64.3
  000717.2                 0.00           0      0.00      0.00      0.00     0.000      0.00    0.0    0.0
  000727.1                17.11         258      0.00      0.58      0.86     0.099      8.57    0.0   49.6
  000727.3                 5.55          34      0.00      0.14      0.62     0.008      1.43    0.0    0.0
  000731.1                 1.43        2466      0.00      0.98      1.15     0.014      1.86    0.0   62.2
  000731.2                 0.00           0      0.00      0.00      0.00     0.000      0.00    0.0    0.0
  000756.1                19.61          22      0.00      0.07      0.13     0.013      2.32    0.0   21.1
  000756.2                10.77           1      0.00      0.04      0.06     0.004      1.12    0.0    0.0
  000786.1                27.92       24077      0.00      0.56      0.88     0.157     22.22    0.0   49.5
  000786.2                 9.37          12      0.00      0.12      0.25     0.011      3.60    0.0    0.0
  000793.1               100.00           1      0.00      0.19      0.58     0.190     28.03    0.0  100.0
  000793.2               100.00           1      0.00      0.19      0.58     0.190     28.03    0.0  100.0
  000793.3               100.00           1      0.00      0.19      0.58     0.190     28.03    0.0  100.0
  000805.1                 2.19        3333      0.00      0.53      0.86     0.012      1.27    0.0   46.7
  000805.2                 2.19        3333      0.00      0.53      0.86     0.012      1.27    0.0   46.7
  000824.1                 0.00           0      0.00      0.00      0.00     0.000      0.00    0.0    0.0
  000824.2                 0.00           0      0.00      0.00      0.00     0.000      0.00    0.0    0.0
  000827.1                 5.77         257      0.00      0.53      1.15     0.030      5.98    0.0   24.3
  000827.2                 5.65          11      0.00      0.10      0.13     0.005      1.54    0.0    0.0
  000874.1                 0.00           0      0.00      0.00      0.00     0.000      0.00    0.0    0.0
  000874.2                 0.00           0      0.00      0.00      0.00     0.000      0.00    0.0    0.0
  

  Analysis begun on:  Wed Jun 24 00:02:54 2026
  Analysis ended on:  Wed Jun 24 00:05:27 2026
  Total elapsed time: 00:02:33