
  EPA STORM WATER MANAGEMENT MODEL - VERSION 5.2 (Build 5.2.4)
  ------------------------------------------------------------

  
  ERROR 209: undefined object 3 at line 51 of [SUBCATCHMENT] section:
  FMN0803-a-1      3                FMN0803-a        4.489007 0.000000 249.484826 0.023104 0.000000                 

  
  ERROR 209: undefined object 3 at line 52 of [SUBCATCHMENT] section:
  FMN0803-a-10     3                FMN0803-a        0.227000 0.000000 56.102506 0.023104 0.000000                 

  
  ERROR 209: undefined object 3 at line 53 of [SUBCATCHMENT] section:
  FMN0803-a-11     3                FMN0803-a        0.232000 0.000000 56.717010 0.023104 0.000000                 

  
  ERROR 209: undefined object 3 at line 54 of [SUBCATCHMENT] section:
  FMN0803-a-12     3                FMN0803-a        0.240000 0.000000 57.686602 0.023104 0.000000                 

  
  ERROR 209: undefined object 3 at line 55 of [SUBCATCHMENT] section:
  FMN0803-a-13     3                FMN0803-a        0.256000 0.000000 59.578466 0.023104 0.000000                 

  
  ERROR 209: undefined object 3 at line 56 of [SUBCATCHMENT] section:
  FMN0803-a-14     3                FMN0803-a        0.221000 0.000000 55.356098 0.023104 0.000000                 

  
  ERROR 209: undefined object 3 at line 57 of [SUBCATCHMENT] section:
  FMN0803-a-15     3                FMN0803-a        0.246000 0.000000 58.403233 0.023104 0.000000                 

  
  ERROR 209: undefined object 3 at line 58 of [SUBCATCHMENT] section:
  FMN0803-a-16     3                FMN0803-a        0.213000 0.000000 54.344943 0.023104 0.000000                 

  
  ERROR 209: undefined object 3 at line 59 of [SUBCATCHMENT] section:
  FMN0803-a-17     3                FMN0803-a        0.195000 0.000000 51.998000 0.023104 0.000000                 

  
  ERROR 209: undefined object 3 at line 60 of [SUBCATCHMENT] section:
  FMN0803-a-18     3                FMN0803-a        0.111000 0.000000 39.231131 0.023104 0.000000                 

  
  ERROR 209: undefined object 3 at line 61 of [SUBCATCHMENT] section:
  FMN0803-a-19     3                FMN0803-a        0.197000 0.000000 52.263976 0.023104 0.000000                 

  
  ERROR 209: undefined object 3 at line 62 of [SUBCATCHMENT] section:
  FMN0803-a-2      3                FMN0803-a        2.775004 0.000000 196.155653 0.023104 0.000000                 

  
  ERROR 209: undefined object 3 at line 63 of [SUBCATCHMENT] section:
  FMN0803-a-20     3                FMN0803-a        0.260000 0.000000 60.042119 0.023104 0.000000                 

  
  ERROR 209: undefined object 3 at line 64 of [SUBCATCHMENT] section:
  FMN0803-a-21     3                FMN0803-a        0.239000 0.000000 57.566296 0.023104 0.000000                 

  
  ERROR 209: undefined object 3 at line 65 of [SUBCATCHMENT] section:
  FMN0803-a-22     3                FMN0803-a        0.241000 0.000000 57.806657 0.023104 0.000000                 

  
  ERROR 209: undefined object 3 at line 66 of [SUBCATCHMENT] section:
  FMN0803-a-23     3                FMN0803-a        0.246000 0.000000 58.403233 0.023104 0.000000                 

  
  ERROR 209: undefined object 3 at line 67 of [SUBCATCHMENT] section:
  FMN0803-a-24     3                FMN0803-a        0.227000 0.000000 56.102506 0.023104 0.000000                 

  
  ERROR 209: undefined object 3 at line 68 of [SUBCATCHMENT] section:
  FMN0803-a-25     3                FMN0803-a        0.278000 0.000000 62.085721 0.023104 0.000000                 

  
  ERROR 209: undefined object 3 at line 69 of [SUBCATCHMENT] section:
  FMN0803-a-26     3                FMN0803-a        0.249000 0.000000 58.758271 0.023104 0.000000                 

  
  ERROR 209: undefined object 3 at line 70 of [SUBCATCHMENT] section:
  FMN0803-a-27     3                FMN0803-a        0.219000 0.000000 55.105049 0.023104 0.000000                 

  
  ERROR 209: undefined object 3 at line 71 of [SUBCATCHMENT] section:
  FMN0803-a-3      3                FMN0803-a        0.220000 0.000000 55.230716 0.023104 0.000000                 

  
  ERROR 209: undefined object 3 at line 72 of [SUBCATCHMENT] section:
  FMN0803-a-4      3                FMN0803-a        0.328001 0.000000 67.438244 0.023104 0.000000                 

  
  ERROR 209: undefined object 3 at line 73 of [SUBCATCHMENT] section:
  FMN0803-a-5      3                FMN0803-a        0.243000 0.000000 58.046023 0.023104 0.000000                 

  
  ERROR 209: undefined object 3 at line 74 of [SUBCATCHMENT] section:
  FMN0803-a-6      3                FMN0803-a        0.231000 0.000000 56.594643 0.023104 0.000000                 

  
  ERROR 209: undefined object 3 at line 75 of [SUBCATCHMENT] section:
  FMN0803-a-7      3                FMN0803-a        0.208000 0.000000 53.703304 0.023104 0.000000                 

  
  ERROR 209: undefined object 3 at line 76 of [SUBCATCHMENT] section:
  FMN0803-a-8      3                FMN0803-a        0.234000 0.000000 56.960955 0.023104 0.000000                 

  
  ERROR 209: undefined object 3 at line 77 of [SUBCATCHMENT] section:
  FMN0803-a-9      3                FMN0803-a        0.223000 0.000000 55.606014 0.023104 0.000000                 

  
  ERROR 209: undefined object 2 at line 78 of [SUBCATCHMENT] section:
  FMN0817-1        2                FMN0817          2101.642244 0.000000 5398.192829 0.295710 0.000000                 

  
  ERROR 209: undefined object 2 at line 79 of [SUBCATCHMENT] section:
  FMN0817-2        2                FMN0817          258.345399 0.000000 1892.645885 0.295710 0.000000                 

  
  ERROR 209: undefined object 3 at line 80 of [SUBCATCHMENT] section:
  FMN1043-1        3                FMN1043          0.379001 0.000000 72.491809 0.020624 0.000000                 

  
  ERROR 209: undefined object 3 at line 81 of [SUBCATCHMENT] section:
  FMN1043-10       3                FMN1043          0.256000 0.000000 59.578466 0.020624 0.000000                 

  
  ERROR 209: undefined object 3 at line 82 of [SUBCATCHMENT] section:
  FMN1043-11       3                FMN1043          0.304000 0.000000 64.924128 0.020624 0.000000                 

  
  ERROR 209: undefined object 3 at line 83 of [SUBCATCHMENT] section:
  FMN1043-12       3                FMN1043          0.254000 0.000000 59.345281 0.020624 0.000000                 

  
  ERROR 209: undefined object 3 at line 84 of [SUBCATCHMENT] section:
  FMN1043-13       3                FMN1043          0.273000 0.000000 61.524863 0.020624 0.000000                 

  
  ERROR 209: undefined object 3 at line 85 of [SUBCATCHMENT] section:
  FMN1043-14       3                FMN1043          0.259000 0.000000 59.926542 0.020624 0.000000                 

  
  ERROR 209: undefined object 3 at line 86 of [SUBCATCHMENT] section:
  FMN1043-15       3                FMN1043          0.264000 0.000000 60.502218 0.020624 0.000000                 

  
  ERROR 209: undefined object 3 at line 87 of [SUBCATCHMENT] section:
  FMN1043-16       3                FMN1043          1.058002 0.000000 121.118970 0.020624 0.000000                 

  
  ERROR 209: undefined object 3 at line 88 of [SUBCATCHMENT] section:
  FMN1043-17       3                FMN1043          0.350001 0.000000 69.663190 0.020624 0.000000                 

  
  ERROR 209: undefined object 3 at line 89 of [SUBCATCHMENT] section:
  FMN1043-18       3                FMN1043          0.259000 0.000000 59.926542 0.020624 0.000000                 

  
  ERROR 209: undefined object 3 at line 90 of [SUBCATCHMENT] section:
  FMN1043-19       3                FMN1043          0.242000 0.000000 57.926464 0.020624 0.000000                 

  
  ERROR 209: undefined object 3 at line 91 of [SUBCATCHMENT] section:
  FMN1043-2        3                FMN1043          0.324001 0.000000 67.025774 0.020624 0.000000                 

  
  ERROR 209: undefined object 3 at line 92 of [SUBCATCHMENT] section:
  FMN1043-20       3                FMN1043          0.239000 0.000000 57.566296 0.020624 0.000000                 

  
  ERROR 209: undefined object 3 at line 93 of [SUBCATCHMENT] section:
  FMN1043-21       3                FMN1043          0.241000 0.000000 57.806657 0.020624 0.000000                 

  
  ERROR 209: undefined object 3 at line 94 of [SUBCATCHMENT] section:
  FMN1043-22       3                FMN1043          0.262000 0.000000 60.272607 0.020624 0.000000                 

  
  ERROR 209: undefined object 3 at line 95 of [SUBCATCHMENT] section:
  FMN1043-23       3                FMN1043          0.224000 0.000000 55.730552 0.020624 0.000000                 

  
  ERROR 209: undefined object 3 at line 96 of [SUBCATCHMENT] section:
  FMN1043-24       3                FMN1043          0.285000 0.000000 62.862517 0.020624 0.000000                 

  
  ERROR 209: undefined object 3 at line 97 of [SUBCATCHMENT] section:
  FMN1043-25       3                FMN1043          0.253000 0.000000 59.228345 0.020624 0.000000                 

  
  ERROR 209: undefined object 3 at line 98 of [SUBCATCHMENT] section:
  FMN1043-26       3                FMN1043          0.241000 0.000000 57.806657 0.020624 0.000000                 

  
  ERROR 209: undefined object 3 at line 99 of [SUBCATCHMENT] section:
  FMN1043-3        3                FMN1043          0.228000 0.000000 56.225944 0.020624 0.000000                 

  
  ERROR 209: undefined object 3 at line 100 of [SUBCATCHMENT] section:
  FMN1043-4        3                FMN1043          0.257000 0.000000 59.694717 0.020624 0.000000                 

  
  ERROR 209: undefined object 3 at line 101 of [SUBCATCHMENT] section:
  FMN1043-5        3                FMN1043          0.256000 0.000000 59.578466 0.020624 0.000000                 

  
  ERROR 209: undefined object 3 at line 102 of [SUBCATCHMENT] section:
  FMN1043-6        3                FMN1043          0.273000 0.000000 61.524863 0.020624 0.000000                 

  
  ERROR 209: undefined object 3 at line 103 of [SUBCATCHMENT] section:
  FMN1043-7        3                FMN1043          0.224000 0.000000 55.730552 0.020624 0.000000                 

  
  ERROR 209: undefined object 3 at line 104 of [SUBCATCHMENT] section:
  FMN1043-8        3                FMN1043          0.295000 0.000000 63.955860 0.020624 0.000000                 

  
  ERROR 209: undefined object 3 at line 105 of [SUBCATCHMENT] section:
  FMN1043-9        3                FMN1043          0.295000 0.000000 63.955860 0.020624 0.000000                 

  
  ERROR 209: undefined object 3 at line 106 of [SUBCATCHMENT] section:
  FMN1053-1        3                FMN1053          1.711003 0.000000 154.026107 0.000000 0.000000                 

  
  ERROR 209: undefined object 3 at line 107 of [SUBCATCHMENT] section:
  FMN1053-2        3                FMN1053          1.342002 0.000000 136.409806 0.000000 0.000000                 

  
  ERROR 209: undefined object 2 at line 108 of [SUBCATCHMENT] section:
  LS018-1          2                LS018            3.396005 0.000000 216.996723 0.000000 0.000000                 

  
  ERROR 209: undefined object 2 at line 109 of [SUBCATCHMENT] section:
  LS018-2          2                LS018            2.298004 0.000000 178.502518 0.000000 0.000000                 

  
  ERROR 209: undefined object 5 at line 110 of [SUBCATCHMENT] section:
  LS027-1          5                LS027            0.655081 0.000000 95.305175 0.000000 0.000000                 

  
  ERROR 209: undefined object 5 at line 111 of [SUBCATCHMENT] section:
  LS027-2          5                LS027            2.306869 0.000000 178.846490 0.000000 0.000000                 

  
  ERROR 209: undefined object 2 at line 112 of [SUBCATCHMENT] section:
  LS038-1          2                LS038            0.421001 0.000000 76.402995 0.000000 0.000000                 

  
  ERROR 209: undefined object 2 at line 113 of [SUBCATCHMENT] section:
  LS043-A-1        2                LS043-A          1.510002 0.000000 144.696427 8.761008 0.000000                 

  
  ERROR 209: undefined object 4 at line 114 of [SUBCATCHMENT] section:
  LS129-1          4                LS129            0.628407 0.000000 93.344659 0.000000 0.000000                 

  
  ERROR 209: undefined object 4 at line 115 of [SUBCATCHMENT] section:
  LS130-1          4                LS130            1.480161 0.000000 143.259497 0.000000 0.000000                 

  
  ERROR 209: undefined object 1 at line 116 of [SUBCATCHMENT] section:
  SSMH0001-1       1                SSMH0001         0.546374 0.000000 87.039048 0.101177 0.000000                 

  
  ERROR 209: undefined object 2 at line 117 of [SUBCATCHMENT] section:
  SSMH0005-1       2                SSMH0005         0.484847 0.000000 81.991965 0.278077 0.000000                 

  
  ERROR 209: undefined object 2 at line 118 of [SUBCATCHMENT] section:
  SSMH0005-2       2                SSMH0005         0.545456 0.000000 86.965881 0.278077 0.000000                 

  
  ERROR 209: undefined object 2 at line 119 of [SUBCATCHMENT] section:
  SSMH0008-1       2                SSMH0008         0.138918 0.000000 43.888324 0.822017 0.000000                 

  
  ERROR 209: undefined object 2 at line 120 of [SUBCATCHMENT] section:
  SSMH0008-2       2                SSMH0008         1.030687 0.000000 119.545292 0.822017 0.000000                 

  
  ERROR 209: undefined object 2 at line 121 of [SUBCATCHMENT] section:
  SSMH0009-1       2                SSMH0009         0.749639 0.000000 101.951858 0.555458 0.000000                 

  
  ERROR 209: undefined object 2 at line 122 of [SUBCATCHMENT] section:
  SSMH0012-1       2                SSMH0012         2.264012 0.000000 177.177408 0.210513 0.000000                 

  
  ERROR 209: undefined object 2 at line 123 of [SUBCATCHMENT] section:
  SSMH0013-1       2                SSMH0013         0.345927 0.000000 69.256588 2.092055 0.000000                 

  
  ERROR 209: undefined object 5 at line 124 of [SUBCATCHMENT] section:
  SSMH0014-1       5                SSMH0014         0.167486 0.000000 48.190161 0.675800 0.000000                 

  
  ERROR 209: undefined object 5 at line 125 of [SUBCATCHMENT] section:
  SSMH0015-1       5                SSMH0015         0.431625 0.000000 77.361054 0.442018 0.000000                 

  
  ERROR 209: undefined object 5 at line 126 of [SUBCATCHMENT] section:
  SSMH0015-2       5                SSMH0015         0.599268 0.000000 91.154782 0.442018 0.000000                 

  
  ERROR 209: undefined object 5 at line 127 of [SUBCATCHMENT] section:
  SSMH0016-1       5                SSMH0016         0.572179 0.000000 89.070703 0.000000 0.000000                 

  
  ERROR 209: undefined object 5 at line 128 of [SUBCATCHMENT] section:
  SSMH0016-2       5                SSMH0016         0.749090 0.000000 101.914485 0.000000 0.000000                 

  
  ERROR 209: undefined object 5 at line 129 of [SUBCATCHMENT] section:
  SSMH0017-1       5                SSMH0017         0.690161 0.000000 97.823724 0.595930 0.000000                 

  
  ERROR 209: undefined object 5 at line 130 of [SUBCATCHMENT] section:
  SSMH0017-2       5                SSMH0017         0.518626 0.000000 84.800029 0.595930 0.000000                 

  
  ERROR 209: undefined object 5 at line 131 of [SUBCATCHMENT] section:
  SSMH0018-1       5                SSMH0018         0.955332 0.000000 115.092251 0.433234 0.000000                 

  
  ERROR 209: undefined object 5 at line 132 of [SUBCATCHMENT] section:
  SSMH0018-2       5                SSMH0018         0.178651 0.000000 49.770474 0.433234 0.000000                 

  
  ERROR 209: undefined object 5 at line 133 of [SUBCATCHMENT] section:
  SSMH0019-1       5                SSMH0019         1.028168 0.000000 119.399083 1.577453 0.000000                 

  
  ERROR 209: undefined object 5 at line 134 of [SUBCATCHMENT] section:
  SSMH0019-2       5                SSMH0019         0.185125 0.000000 50.664292 1.577453 0.000000                 

  
  ERROR 209: undefined object 5 at line 135 of [SUBCATCHMENT] section:
  SSMH0020-1       5                SSMH0020         0.460136 0.000000 79.875228 1.085965 0.000000                 

  
  ERROR 209: undefined object 2 at line 136 of [SUBCATCHMENT] section:
  SSMH0022-1       2                SSMH0022         0.238143 0.000000 57.462933 0.183333 0.000000                 

  
  ERROR 209: undefined object 2 at line 137 of [SUBCATCHMENT] section:
  SSMH0022-2       2                SSMH0022         0.192805 0.000000 51.704436 0.183333 0.000000                 

  
  ERROR 209: undefined object 2 at line 138 of [SUBCATCHMENT] section:
  SSMH0022-3       2                SSMH0022         0.279843 0.000000 62.291088 0.183333 0.000000                 

  
  ERROR 209: undefined object 2 at line 139 of [SUBCATCHMENT] section:
  SSMH0023-1       2                SSMH0023         1.421166 0.000000 140.375542 0.170188 0.000000                 

  
  ERROR 209: undefined object 2 at line 140 of [SUBCATCHMENT] section:
  SSMH0023-2       2                SSMH0023         0.555504 0.000000 87.763208 0.170188 0.000000                 

  
  ERROR 209: undefined object 2 at line 141 of [SUBCATCHMENT] section:
  SSMH0027-1       2                SSMH0027         0.248344 0.000000 58.680735 0.440846 0.000000                 

  
  ERROR 209: undefined object 2 at line 142 of [SUBCATCHMENT] section:
  SSMH0029-1       2                SSMH0029         0.219773 0.000000 55.202173 0.000000 0.000000                 

  
  ERROR 209: undefined object 2 at line 143 of [SUBCATCHMENT] section:
  SSMH0030-1       2                SSMH0030         0.325183 0.000000 67.147927 0.620264 0.000000                 

  
  ERROR 209: undefined object 2 at line 144 of [SUBCATCHMENT] section:
  SSMH0030-2       2                SSMH0030         0.336402 0.000000 68.296441 0.620264 0.000000                 

  
  ERROR 209: undefined object 2 at line 145 of [SUBCATCHMENT] section:
  SSMH0032-1       2                SSMH0032         2.433245 0.000000 183.680029 0.000000 0.000000                 

  
  ERROR 209: undefined object 2 at line 146 of [SUBCATCHMENT] section:
  SSMH0033-1       2                SSMH0033         0.280321 0.000000 62.344315 0.686965 0.000000                 

  
  ERROR 209: undefined object 5 at line 147 of [SUBCATCHMENT] section:
  SSMH0034-1       5                SSMH0034         0.222852 0.000000 55.587568 0.227993 0.000000                 

  
  ERROR 209: undefined object 5 at line 148 of [SUBCATCHMENT] section:
  SSMH0034-2       5                SSMH0034         0.288300 0.000000 63.225376 0.227993 0.000000                 

  
  ERROR 209: undefined object 5 at line 149 of [SUBCATCHMENT] section:
  SSMH0035-1       5                SSMH0035         0.845393 0.000000 108.267546 0.769585 0.000000                 

  
  ERROR 209: undefined object 5 at line 150 of [SUBCATCHMENT] section:
  SSMH0036-1       5                SSMH0036         0.865333 0.000000 109.536917 0.782759 0.000000                 

  
  Maximum error count exceeded.

  Analysis begun on:  Wed Jun 24 00:09:41 2026
  Analysis ended on:  Wed Jun 24 00:09:41 2026
  Total elapsed time: < 1 sec