
  EPA STORM WATER MANAGEMENT MODEL - VERSION 5.2 (Build 5.2.4)
  ------------------------------------------------------------

  WARNING 04: minimum elevation drop used for Conduit 867-877
  WARNING 04: minimum elevation drop used for Conduit 868-867
  WARNING 04: minimum elevation drop used for Conduit 877-878
  WARNING 04: minimum elevation drop used for Conduit 878-3048
  WARNING 04: minimum elevation drop used for Conduit 936A-936
  WARNING 04: minimum elevation drop used for Conduit 936B-936A
  WARNING 04: minimum elevation drop used for Conduit 976A-975A
  WARNING 04: minimum elevation drop used for Conduit 977-976A
  WARNING 02: maximum depth increased for Node 825B
  WARNING 02: maximum depth increased for Node 825C
  WARNING 02: maximum depth increased for Node 969
  WARNING 02: maximum depth increased for Node 998
  
  ****************
  Analysis Options
  ****************
  Flow Units ............... MGD
  Process Models:
    Rainfall/Runoff ........ NO
    RDII ................... NO
    Snowmelt ............... NO
    Groundwater ............ NO
    Flow Routing ........... YES
    Ponding Allowed ........ NO
    Water Quality .......... NO
  Flow Routing Method ...... DYNWAVE
  Surcharge Method ......... EXTRAN
  Starting Date ............ 01/01/2002 00:00:00
  Ending Date .............. 01/01/2002 12:00:00
  Antecedent Dry Days ...... 5.0
  Report Time Step ......... 00:05:00
  Routing Time Step ........ 300.00 sec
  Variable Time Step ....... YES
  Maximum Trials ........... 8
  Number of Threads ........ 1
  Head Tolerance ........... 0.005000 ft
  
  
  **************************        Volume        Volume
  Flow Routing Continuity        acre-feet      10^6 gal
  **************************     ---------     ---------
  Dry Weather Inflow .......         4.874         1.588
  Wet Weather Inflow .......         0.000         0.000
  Groundwater Inflow .......         0.000         0.000
  RDII Inflow ..............         0.000         0.000
  External Inflow ..........         0.000         0.000
  External Outflow .........         4.432         1.444
  Flooding Loss ............         0.081         0.026
  Evaporation Loss .........         0.000         0.000
  Exfiltration Loss ........         0.000         0.000
  Initial Stored Volume ....         0.000         0.000
  Final Stored Volume ......         0.343         0.112
  Continuity Error (%) .....         0.391
  
  
  *************************
  Highest Continuity Errors
  *************************
  Node 936 (56.19%)
  Node 936A (34.08%)
  Node 976A (23.28%)
  Node 975A (14.85%)
  Node 142 (13.41%)
  
  
  ***************************
  Time-Step Critical Elements
  ***************************
  Link 1040-4002 (97.18%)
  Link 785A-3024 (2.67%)
  
  
  ********************************
  Highest Flow Instability Indexes
  ********************************
  All links are stable.
  
  
  *********************************
  Most Frequent Nonconverging Nodes
  *********************************
  Convergence obtained at all time steps.
  
  
  *************************
  Routing Time Step Summary
  *************************
  Minimum Time Step           :     0.16 sec
  Average Time Step           :     0.52 sec
  Maximum Time Step           :    20.18 sec
  % of Time in Steady State   :     0.00
  Average Iterations per Step :     2.00
  % of Steps Not Converging   :     0.00
  Time Step Frequencies       :
     300.000 - 83.462 sec      :     0.00 %
     83.462 - 23.220 sec      :     0.00 %
     23.220 -  6.460 sec      :     0.00 %
      6.460 -  1.797 sec      :     0.22 %
      1.797 -  0.500 sec      :    99.78 %
  
  
  ******************
  Node Depth Summary
  ******************
  
  ---------------------------------------------------------------------------------
                                 Average  Maximum  Maximum  Time of Max    Reported
                                   Depth    Depth      HGL   Occurrence   Max Depth
  Node                 Type         Feet     Feet     Feet  days hr:min        Feet
  ---------------------------------------------------------------------------------
  1                    JUNCTION     0.18     0.18    20.53     0  03:43        0.18
  10                   JUNCTION     0.21     0.23    17.22     0  03:40        0.23
  100                  JUNCTION     0.15     0.16    17.53     0  01:39        0.16
  1000                 JUNCTION     0.04     0.04    93.04     0  02:55        0.04
  1001                 JUNCTION     0.05     0.05    91.37     0  02:58        0.05
  1002                 JUNCTION     0.03     0.03    90.16     0  03:21        0.03
  1003                 JUNCTION     0.03     0.03    82.31     0  03:16        0.03
  1004                 JUNCTION     0.09     0.09    18.30     0  01:20        0.09
  1006                 JUNCTION     0.13     0.13    16.83     0  01:40        0.13
  1007                 JUNCTION     0.14     0.14    16.25     0  01:43        0.14
  1008                 JUNCTION     0.16     0.16    15.54     0  01:55        0.16
  1009                 JUNCTION     0.16     0.16    14.64     0  02:15        0.16
  101                  JUNCTION     0.18     0.18    16.71     0  01:46        0.18
  1010                 JUNCTION     0.04     0.04    15.87     0  01:34        0.04
  1011                 JUNCTION     0.03     0.03    20.00     0  00:04        0.03
  1012                 JUNCTION     0.05     0.05    17.94     0  00:55        0.05
  1013                 JUNCTION     0.08     0.08    16.47     0  01:27        0.08
  1014                 JUNCTION     0.12     0.12    15.01     0  01:37        0.12
  1015                 JUNCTION     0.13     0.13    13.87     0  01:38        0.13
  1016                 JUNCTION     0.15     0.15    12.80     0  01:40        0.15
  1017                 JUNCTION     0.17     0.17    12.01     0  01:41        0.17
  1018                 JUNCTION     0.10     0.11    15.73     0  00:03        0.10
  1019                 JUNCTION     0.05     0.05    17.40     0  00:03        0.05
  102                  JUNCTION     0.20     0.20    15.89     0  00:23        0.20
  1020                 JUNCTION     0.06     0.06    16.66     0  01:02        0.06
  1021                 JUNCTION     0.06     0.06    15.59     0  00:15        0.06
  1022                 JUNCTION     0.06     0.06    14.51     0  00:26        0.06
  1023                 JUNCTION     2.74     3.01    19.07     0  12:00        3.01
  1025                 JUNCTION     0.06     0.06    19.05     0  01:39        0.06
  1028                 JUNCTION     0.15     0.15     4.02     0  02:58        0.15
  103                  JUNCTION     0.20     0.20    15.10     0  01:56        0.20
  1030                 JUNCTION     0.01     0.01     4.67     0  02:54        0.01
  1032                 JUNCTION     0.01     0.01     5.46     0  01:06        0.01
  1034                 JUNCTION     0.00     0.00     6.14     0  00:00        0.00
  1036                 JUNCTION     0.00     0.00     6.79     0  00:00        0.00
  104                  JUNCTION     0.22     0.22    14.33     0  00:27        0.22
  1040                 JUNCTION     0.13     0.14   -10.41     0  11:57        0.14
  105                  JUNCTION     0.23     0.24    13.56     0  02:23        0.24
  106                  JUNCTION     0.09     0.10    19.84     0  00:06        0.10
  107                  JUNCTION     0.09     0.09    19.37     0  01:35        0.09
  108                  JUNCTION     0.11     0.11    18.55     0  01:58        0.11
  109                  JUNCTION     0.13     0.13    17.73     0  02:06        0.13
  11                   JUNCTION     0.21     0.23    16.72     0  03:44        0.23
  110                  JUNCTION     0.16     0.16    16.92     0  02:12        0.16
  1105                 JUNCTION     0.13     0.13    17.62     0  01:37        0.13
  111                  JUNCTION     0.03     0.03    17.53     0  00:15        0.03
  112                  JUNCTION     0.18     0.18    16.14     0  02:16        0.18
  113                  JUNCTION     0.20     0.20    15.37     0  02:20        0.20
  114                  JUNCTION     0.23     0.23    14.61     0  02:34        0.23
  12                   JUNCTION     0.21     0.23    16.22     0  03:49        0.23
  125                  JUNCTION     0.04     0.05    19.79     0  00:08        0.05
  126                  JUNCTION     0.05     0.05    19.41     0  02:51        0.05
  127                  JUNCTION     0.07     0.07    18.73     0  02:56        0.07
  128                  JUNCTION     0.10     0.10    18.06     0  03:02        0.10
  129                  JUNCTION     0.11     0.11    17.37     0  03:08        0.11
  13                   JUNCTION     0.22     0.24    15.73     0  03:53        0.24
  130                  JUNCTION     0.13     0.13    16.73     0  03:10        0.13
  131                  JUNCTION     0.14     0.14    16.08     0  03:13        0.14
  132                  JUNCTION     0.15     0.16    15.44     0  03:29        0.16
  133                  JUNCTION     0.15     0.15    14.67     0  03:35        0.15
  134                  JUNCTION     0.26     0.26    11.89     0  03:36        0.26
  135                  JUNCTION     0.28     0.28    10.78     0  03:34        0.28
  136                  JUNCTION     0.07     0.07    16.42     0  00:38        0.07
  137                  JUNCTION     0.11     0.11    16.04     0  01:25        0.11
  138                  JUNCTION     0.14     0.14    15.23     0  01:47        0.14
  139                  JUNCTION     0.17     0.17    14.36     0  01:56        0.17
  14                   JUNCTION     0.29     0.31    15.34     0  03:56        0.31
  140                  JUNCTION     0.19     0.19    13.42     0  02:03        0.19
  141                  JUNCTION     0.20     0.20    12.45     0  03:35        0.20
  142                  JUNCTION     3.20     3.47    19.07     0  03:17        3.47
  143                  JUNCTION     0.21     0.22    11.53     0  04:20        0.22
  144                  JUNCTION     0.23     0.24    10.29     0  04:21        0.24
  144A                 JUNCTION     0.28     0.28     6.18     0  04:21        0.28
  145                  JUNCTION     0.26     0.27    11.20     0  01:59        0.27
  146                  JUNCTION     0.26     0.26    12.45     0  02:30        0.26
  147                  JUNCTION     0.24     0.24    13.37     0  02:03        0.24
  148                  JUNCTION     0.21     0.21    14.32     0  01:57        0.21
  149                  JUNCTION     0.19     0.19    15.26     0  01:49        0.19
  15                   JUNCTION     0.29     0.31    14.84     0  04:00        0.31
  150                  JUNCTION     0.16     0.16    16.13     0  01:40        0.16
  151                  JUNCTION     0.12     0.12    16.93     0  01:13        0.12
  152                  JUNCTION     0.08     0.08    17.19     0  00:02        0.08
  153                  JUNCTION     0.05     0.06    17.18     0  00:09        0.06
  154                  JUNCTION     0.05     0.05    16.82     0  00:31        0.05
  155                  JUNCTION     0.09     0.09    16.16     0  01:22        0.09
  156                  JUNCTION     0.11     0.11    15.43     0  01:57        0.11
  157                  JUNCTION     0.13     0.13    14.65     0  02:21        0.13
  158                  JUNCTION     0.14     0.14    13.84     0  02:38        0.14
  159                  JUNCTION     0.16     0.16    13.08     0  03:33        0.16
  16                   JUNCTION     0.33     0.34    14.38     0  04:03        0.34
  160                  JUNCTION     0.13     0.13    11.94     0  03:35        0.13
  161                  JUNCTION     0.04     0.04    15.32     0  00:07        0.04
  162                  JUNCTION     0.05     0.05    14.76     0  00:16        0.05
  163                  JUNCTION     0.06     0.06    14.19     0  03:34        0.06
  164                  JUNCTION     0.03     0.03    14.70     0  00:08        0.03
  165                  JUNCTION     0.05     0.05    14.13     0  03:45        0.05
  166                  JUNCTION     0.05     0.05    13.45     0  03:47        0.05
  167                  JUNCTION     0.03     0.03    14.38     0  00:07        0.03
  168                  JUNCTION     0.04     0.04    13.44     0  02:52        0.04
  169                  JUNCTION     0.07     0.08    12.42     0  03:48        0.08
  17                   JUNCTION     0.33     0.34    13.88     0  04:06        0.34
  170                  JUNCTION     0.03     0.03    13.33     0  00:07        0.03
  171                  JUNCTION     0.11     0.11     2.08     0  04:02        0.11
  172                  JUNCTION     0.10     0.10     3.33     0  04:01        0.10
  173                  JUNCTION     0.09     0.09     4.52     0  03:58        0.09
  174                  JUNCTION     0.09     0.09     5.71     0  03:54        0.09
  175                  JUNCTION     0.09     0.10     6.93     0  03:53        0.10
  175A                 JUNCTION     0.10     0.10     7.77     0  03:52        0.10
  177                  JUNCTION     0.10     0.10     9.07     0  03:51        0.10
  178                  JUNCTION     0.09     0.09    10.21     0  03:50        0.09
  179                  JUNCTION     0.09     0.09    11.38     0  03:49        0.09
  18                   JUNCTION     1.60     1.62    13.40     0  04:10        1.62
  180                  JUNCTION     0.04     0.04    12.39     0  02:53        0.04
  181                  JUNCTION     0.04     0.04    15.74     0  02:00        0.04
  182                  JUNCTION     0.05     0.05    15.09     0  03:15        0.05
  183                  JUNCTION     0.07     0.07    14.41     0  04:37        0.07
  184                  JUNCTION     0.07     0.07    13.61     0  04:38        0.07
  185                  JUNCTION     0.07     0.08    13.02     0  04:42        0.08
  186                  JUNCTION     0.08     0.08    12.42     0  04:46        0.08
  187                  JUNCTION     0.13     0.13    11.87     0  04:47        0.13
  187A                 JUNCTION     0.20     0.20    10.66     0  02:50        0.20
  187B                 JUNCTION     0.06     0.06    11.30     0  01:28        0.06
  188                  JUNCTION     0.11     0.11    11.97     0  03:16        0.11
  189                  JUNCTION     0.03     0.03    15.51     0  01:48        0.03
  19                   JUNCTION     1.38     1.41    12.93     0  04:10        1.41
  190                  JUNCTION     0.05     0.05    15.01     0  02:44        0.05
  191                  JUNCTION     0.05     0.05    14.49     0  02:51        0.05
  192                  JUNCTION     0.06     0.06    13.98     0  02:59        0.06
  193                  JUNCTION     0.05     0.05    15.01     0  01:24        0.05
  194                  JUNCTION     0.07     0.07    14.51     0  00:14        0.07
  195                  JUNCTION     0.07     0.07    13.99     0  00:19        0.07
  196                  JUNCTION     0.09     0.10    13.45     0  03:09        0.10
  198                  JUNCTION     0.12     0.12    12.85     0  03:12        0.12
  199                  JUNCTION     0.07     0.07    13.14     0  01:06        0.07
  199A                 JUNCTION     0.12     0.13    12.56     0  03:15        0.13
  2                    JUNCTION     0.12     0.12    19.88     0  03:47        0.12
  20                   JUNCTION     0.36     0.38    12.44     0  04:16        0.38
  200                  JUNCTION     0.02     0.02    12.64     0  00:15        0.02
  201                  JUNCTION     0.04     0.04    15.22     0  00:10        0.04
  2015                 JUNCTION     0.06     0.07     4.49     0  04:08        0.07
  2019                 JUNCTION     0.05     0.05     3.63     0  02:59        0.05
  202                  JUNCTION     0.05     0.05    14.11     0  02:41        0.05
  2026                 JUNCTION     0.12     0.12     5.78     0  04:21        0.12
  2027                 JUNCTION     0.10     0.10     5.78     0  12:00        0.10
  203                  JUNCTION     0.06     0.06    12.90     0  02:53        0.06
  2033                 JUNCTION     0.18     0.18     8.53     0  04:22        0.18
  204                  JUNCTION     0.07     0.07    11.74     0  03:46        0.07
  2042                 JUNCTION     0.06     0.06    11.50     0  01:41        0.06
  205                  JUNCTION     0.10     0.10     2.77     0  04:05        0.10
  206                  JUNCTION     0.08     0.08     3.85     0  04:04        0.08
  207                  JUNCTION     0.04     0.04    12.64     0  01:36        0.04
  208                  JUNCTION     0.05     0.05    11.38     0  02:41        0.05
  209                  JUNCTION     0.06     0.06    10.11     0  02:49        0.06
  21                   JUNCTION     0.39     0.41    11.97     0  04:22        0.41
  210                  JUNCTION     0.12     0.12     8.89     0  04:08        0.12
  211                  JUNCTION     0.09     0.09     7.97     0  04:08        0.09
  212                  JUNCTION     0.03     0.03    10.25     0  01:49        0.03
  213                  JUNCTION     0.03     0.03     9.65     0  02:45        0.03
  214                  JUNCTION     0.02     0.02    14.17     0  01:21        0.02
  215                  JUNCTION     0.05     0.05    13.64     0  03:05        0.05
  216                  JUNCTION     0.07     0.07    12.46     0  03:57        0.07
  217                  JUNCTION     0.07     0.07     5.01     0  04:01        0.07
  218                  JUNCTION     0.04     0.04    12.64     0  01:49        0.04
  219                  JUNCTION     0.05     0.05    11.67     0  02:51        0.05
  22                   JUNCTION     0.15     0.16     9.85     0  04:22        0.16
  220                  JUNCTION     0.07     0.07    10.71     0  03:33        0.07
  221                  JUNCTION     0.10     0.10     9.72     0  04:00        0.10
  222                  JUNCTION     0.04     0.04    11.62     0  01:55        0.04
  223                  JUNCTION     0.05     0.05    10.79     0  00:23        0.05
  224                  JUNCTION     0.06     0.06     9.96     0  00:57        0.06
  225                  JUNCTION     0.04     0.04    14.44     0  03:02        0.04
  226                  JUNCTION     0.03     0.03    15.00     0  00:06        0.03
  227                  JUNCTION     0.03     0.03    13.53     0  01:13        0.03
  228                  JUNCTION     0.04     0.04     7.17     0  02:45        0.04
  229                  JUNCTION     0.04     0.04     6.05     0  02:47        0.04
  23                   JUNCTION     0.00     0.00    10.52     0  00:00        0.00
  230                  JUNCTION     0.04     0.04    13.06     0  01:45        0.04
  231                  JUNCTION     0.05     0.05    12.22     0  02:53        0.05
  232                  JUNCTION     0.07     0.07    11.39     0  03:50        0.07
  233                  JUNCTION     0.07     0.07    10.45     0  03:52        0.07
  234                  JUNCTION     0.04     0.04    11.82     0  01:40        0.04
  235                  JUNCTION     0.05     0.05    11.09     0  02:31        0.05
  236                  JUNCTION     0.06     0.06    10.43     0  03:05        0.06
  237                  JUNCTION     0.06     0.06     9.77     0  03:07        0.06
  238                  JUNCTION     0.09     0.09     9.33     0  03:09        0.09
  239                  JUNCTION     0.09     0.09     8.86     0  01:31        0.09
  24                   JUNCTION     0.02     0.03    10.01     0  00:24        0.03
  240                  JUNCTION     0.11     0.11     8.13     0  02:10        0.11
  241                  JUNCTION     0.10     0.10     7.27     0  02:12        0.10
  242                  JUNCTION     0.11     0.11     6.66     0  02:08        0.11
  243                  JUNCTION     0.11     0.11     6.04     0  02:17        0.11
  244                  JUNCTION     0.21     0.21     5.23     0  04:09        0.21
  245                  JUNCTION     0.09     0.09     9.26     0  03:26        0.09
  246                  JUNCTION     0.08     0.08    10.09     0  03:07        0.08
  247                  JUNCTION     0.07     0.07    10.92     0  02:58        0.07
  248                  JUNCTION     0.06     0.06    11.75     0  02:51        0.06
  249                  JUNCTION     0.12     0.12     1.72     0  04:08        0.12
  249M                 JUNCTION     0.04     0.04    12.57     0  00:09        0.04
  25                   JUNCTION     1.33     1.35     9.82     0  00:34        1.35
  250                  JUNCTION     0.04     0.04    11.80     0  02:56        0.04
  251                  JUNCTION     0.03     0.03    12.53     0  00:06        0.03
  252                  JUNCTION     0.01     0.01     4.45     0  12:00        0.01
  253                  JUNCTION     1.73     1.78     3.67     0  01:20        1.78
  253A                 JUNCTION     1.64     1.69     3.67     0  01:20        1.69
  253B                 JUNCTION     0.55     0.57     3.67     0  01:19        0.57
  254                  JUNCTION     0.09     0.09     5.82     0  04:11        0.09
  255                  JUNCTION     0.06     0.06     6.56     0  04:11        0.06
  256                  JUNCTION     0.15     0.16     0.41     0  12:00        0.16
  257                  JUNCTION     0.16     0.17     1.24     0  11:59        0.17
  258                  JUNCTION     0.15     0.15     1.93     0  12:00        0.15
  259                  JUNCTION     0.10     0.10     2.91     0  01:33        0.10
  25A                  JUNCTION     0.14     0.14     9.57     0  00:45        0.14
  26                   JUNCTION     0.21     0.21     9.09     0  00:59        0.21
  260                  JUNCTION     0.16     0.17    -0.25     0  12:00        0.17
  261                  JUNCTION     0.05     0.06     3.78     0  03:12        0.06
  262                  JUNCTION     0.04     0.04     4.84     0  02:22        0.04
  263                  JUNCTION     0.04     0.04     5.90     0  01:58        0.04
  264                  JUNCTION     0.02     0.02     6.35     0  00:51        0.02
  265                  JUNCTION     0.17     0.18    -0.91     0  12:00        0.18
  266                  JUNCTION     0.05     0.05     4.73     0  03:23        0.05
  267                  JUNCTION     0.04     0.04     5.80     0  02:21        0.04
  268                  JUNCTION     0.03     0.03     6.87     0  01:29        0.03
  269                  JUNCTION     0.18     0.19    -1.57     0  12:00        0.19
  26A                  JUNCTION     0.14     0.14    15.53     0  02:01        0.14
  27                   JUNCTION     0.27     0.27     8.56     0  01:40        0.27
  270                  JUNCTION     0.05     0.05     5.30     0  03:37        0.05
  271                  JUNCTION     0.04     0.04     6.46     0  02:12        0.04
  272                  JUNCTION     0.03     0.03     7.35     0  01:20        0.03
  273                  JUNCTION     0.19     0.20    -2.23     0  12:00        0.20
  274                  JUNCTION     0.06     0.06     4.88     0  03:25        0.06
  275                  JUNCTION     0.05     0.05     6.06     0  02:34        0.05
  276                  JUNCTION     0.04     0.04     7.22     0  02:11        0.04
  277                  JUNCTION     0.02     0.02     7.75     0  00:59        0.02
  278                  JUNCTION     0.22     0.23    -2.87     0  12:00        0.23
  279                  JUNCTION     0.11     0.12     2.71     0  04:24        0.12
  28                   JUNCTION     0.31     0.31     8.01     0  11:59        0.31
  280                  JUNCTION     0.10     0.10     3.38     0  04:17        0.10
  281                  JUNCTION     0.10     0.10     4.08     0  04:14        0.10
  282                  JUNCTION     0.09     0.09     4.75     0  04:12        0.09
  283                  JUNCTION     0.10     0.10     5.36     0  04:12        0.10
  284                  JUNCTION     0.24     0.25    -3.52     0  12:00        0.25
  285                  JUNCTION     0.07     0.07     5.37     0  04:10        0.07
  286                  JUNCTION     0.06     0.06     6.13     0  03:12        0.06
  287                  JUNCTION     0.05     0.05     6.88     0  03:03        0.05
  288                  JUNCTION     0.04     0.04     7.64     0  02:44        0.04
  289                  JUNCTION     0.03     0.03     7.97     0  02:45        0.03
  29                   JUNCTION     0.00     0.00     7.13     0  00:00        0.00
  290                  JUNCTION     0.03     0.03     7.66     0  00:07        0.03
  291                  JUNCTION     0.04     0.04     7.16     0  03:47        0.04
  292                  JUNCTION     0.23     0.24    -4.48     0  12:00        0.24
  293                  JUNCTION     0.05     0.05     3.90     0  01:48        0.05
  294                  JUNCTION     0.07     0.08     4.68     0  01:37        0.08
  295                  JUNCTION     0.05     0.05     6.01     0  01:36        0.05
  296                  JUNCTION     0.09     0.09     6.21     0  01:19        0.09
  298                  JUNCTION     0.04     0.04     6.66     0  02:24        0.04
  299                  JUNCTION     0.03     0.03     7.16     0  00:07        0.03
  29A                  JUNCTION     0.28     0.28     5.99     0  11:59        0.28
  3                    JUNCTION     0.12     0.14    19.25     0  00:57        0.14
  30                   JUNCTION     0.15     0.16     6.91     0  05:02        0.16
  300                  JUNCTION     0.03     0.04     8.33     0  00:08        0.03
  3008                 JUNCTION     0.06     0.06     1.49     0  01:17        0.06
  3009                 JUNCTION     0.00     0.00     2.18     0  00:00        0.00
  301                  JUNCTION     0.04     0.04     7.81     0  03:48        0.04
  3013                 JUNCTION     0.04     0.04     0.69     0  04:08        0.04
  3016                 JUNCTION     0.04     0.04     1.46     0  04:02        0.04
  302                  JUNCTION     0.04     0.04     7.21     0  03:51        0.04
  3024                 JUNCTION     0.12     0.12     2.28     0  05:15        0.12
  303                  JUNCTION     0.11     0.11     2.01     0  03:44        0.11
  3033                 JUNCTION     0.07     0.07     6.54     0  02:02        0.07
  3037                 JUNCTION     0.05     0.05     9.08     0  02:45        0.05
  304                  JUNCTION     0.07     0.07     2.61     0  03:15        0.07
  3044                 JUNCTION     0.04     0.04    12.36     0  04:48        0.04
  3048                 JUNCTION     0.02     0.03     0.03     0  12:00        0.03
  305                  JUNCTION     0.06     0.06     3.27     0  03:12        0.06
  306                  JUNCTION     0.05     0.05     3.84     0  03:06        0.05
  307                  JUNCTION     0.04     0.04     4.67     0  00:10        0.04
  308                  JUNCTION     0.04     0.04     4.60     0  03:00        0.04
  309                  JUNCTION     0.03     0.03     5.25     0  02:53        0.03
  31                   JUNCTION     0.19     0.20     6.38     0  05:07        0.20
  310                  JUNCTION     0.09     0.09     2.64     0  03:36        0.09
  310A                 JUNCTION     0.08     0.08     2.86     0  03:32        0.08
  310B                 JUNCTION     0.05     0.05     3.47     0  00:34        0.05
  310C                 JUNCTION     0.02     0.02     4.54     0  00:54        0.02
  310D                 JUNCTION     0.04     0.04     4.29     0  00:13        0.04
  311                  JUNCTION     0.16     0.16     3.51     0  03:25        0.16
  311C                 JUNCTION     0.02     0.02     3.66     0  01:37        0.02
  312                  JUNCTION     0.06     0.06     4.35     0  00:30        0.06
  313                  JUNCTION     0.05     0.05     5.18     0  03:05        0.05
  314                  JUNCTION     0.04     0.04     5.96     0  02:24        0.04
  314C                 JUNCTION     0.02     0.02     6.32     0  02:24        0.02
  316                  JUNCTION     0.09     0.09     3.38     0  04:04        0.09
  317                  JUNCTION     0.05     0.05     4.91     0  03:25        0.05
  318                  JUNCTION     0.05     0.05     5.75     0  00:25        0.05
  319                  JUNCTION     0.07     0.07     4.13     0  04:02        0.07
  319A                 JUNCTION     0.04     0.04     6.54     0  02:20        0.04
  319C                 JUNCTION     0.02     0.02     6.72     0  01:07        0.02
  32                   JUNCTION     0.26     0.27     5.86     0  05:14        0.27
  320                  JUNCTION     0.07     0.07     5.04     0  03:56        0.07
  321                  JUNCTION     0.05     0.05     5.84     0  03:08        0.05
  322                  JUNCTION     0.04     0.04     6.63     0  02:44        0.04
  322C                 JUNCTION     0.03     0.03     7.03     0  02:43        0.03
  323                  JUNCTION     0.59     0.62    -8.04     0  09:10        0.62
  324                  JUNCTION     0.09     0.09     2.95     0  04:06        0.09
  325                  JUNCTION     0.08     0.08     3.50     0  04:02        0.08
  326                  JUNCTION     0.05     0.05     4.31     0  03:16        0.05
  327                  JUNCTION     0.04     0.04     5.14     0  02:22        0.04
  327C                 JUNCTION     0.02     0.02     5.49     0  01:22        0.02
  328                  JUNCTION     0.06     0.06     4.00     0  04:01        0.06
  329                  JUNCTION     0.06     0.06     4.56     0  03:59        0.06
  33                   JUNCTION     0.19     0.20     5.10     0  05:15        0.20
  330                  JUNCTION     0.05     0.05     5.26     0  03:57        0.05
  331                  JUNCTION     0.04     0.04     5.99     0  00:11        0.04
  331C                 JUNCTION     0.02     0.02     6.38     0  02:37        0.02
  332                  JUNCTION     0.59     0.63    -8.31     0  09:10        0.63
  332A                 JUNCTION     0.59     0.62    -8.10     0  09:09        0.62
  333                  JUNCTION     0.59     0.63    -8.65     0  09:11        0.63
  333A                 JUNCTION     0.59     0.62    -8.46     0  09:10        0.62
  334                  JUNCTION     0.59     0.63    -8.95     0  09:12        0.63
  334A                 JUNCTION     0.58     0.62    -8.82     0  09:11        0.62
  334B                 JUNCTION     0.59     0.63    -8.98     0  09:12        0.63
  335                  JUNCTION     0.59     0.63    -9.25     0  08:56        0.63
  335A                 JUNCTION     0.59     0.63    -9.10     0  09:12        0.63
  336                  JUNCTION     0.54     0.57    -9.77     0  11:57        0.57
  336A                 JUNCTION     0.62     0.66    -9.42     0  08:19        0.66
  337                  JUNCTION     0.25     0.26    -4.84     0  11:59        0.26
  338                  JUNCTION     0.03     0.03     4.63     0  03:40        0.03
  339                  JUNCTION     0.04     0.04     3.90     0  03:41        0.04
  34                   JUNCTION     0.06     0.07    20.89     0  05:34        0.07
  340                  JUNCTION     0.04     0.04     2.92     0  03:58        0.04
  341                  JUNCTION     0.07     0.07     1.97     0  04:04        0.07
  342                  JUNCTION     0.06     0.06     2.62     0  03:58        0.06
  343                  JUNCTION     0.05     0.05     3.28     0  03:19        0.05
  344                  JUNCTION     0.04     0.04     3.83     0  03:11        0.04
  345                  JUNCTION     0.04     0.04     4.77     0  03:08        0.04
  345C                 JUNCTION     0.02     0.02     5.07     0  01:10        0.02
  346                  JUNCTION     0.11     0.11    -1.61     0  04:04        0.11
  347                  JUNCTION     0.25     0.26    -2.05     0  09:02        0.26
  347A                 JUNCTION     0.11     0.11    -1.92     0  04:04        0.11
  348                  JUNCTION     0.21     0.22    -2.48     0  09:04        0.22
  349                  JUNCTION     0.22     0.23    -3.20     0  09:06        0.23
  35                   JUNCTION     0.07     0.07    20.19     0  05:37        0.07
  350                  JUNCTION     0.19     0.19    -3.96     0  09:08        0.19
  351                  JUNCTION     0.23     0.24    -5.12     0  09:11        0.24
  352                  JUNCTION     0.57     0.60    -6.31     0  09:11        0.60
  353                  JUNCTION     0.05     0.05     2.22     0  04:31        0.05
  354                  JUNCTION     0.03     0.03     2.67     0  01:50        0.03
  355                  JUNCTION     0.05     0.05     1.96     0  02:41        0.05
  356                  JUNCTION     0.06     0.06     1.29     0  03:47        0.06
  357                  JUNCTION     0.58     0.60    -6.65     0  09:10        0.60
  358                  JUNCTION     0.03     0.03     2.90     0  00:09        0.03
  359                  JUNCTION     0.04     0.05     2.23     0  00:18        0.05
  359C                 JUNCTION     0.02     0.02     2.50     0  01:01        0.02
  36                   JUNCTION     0.08     0.09    19.51     0  01:13        0.09
  360                  JUNCTION     0.05     0.05     1.39     0  05:28        0.05
  361                  JUNCTION     0.58     0.61    -6.98     0  09:11        0.61
  362                  JUNCTION     0.03     0.03     2.94     0  02:41        0.03
  363                  JUNCTION     0.03     0.03     3.33     0  01:37        0.03
  364                  JUNCTION     0.05     0.05     1.28     0  04:50        0.05
  365                  JUNCTION     0.59     0.62    -7.31     0  09:11        0.62
  366                  JUNCTION     0.58     0.62    -7.72     0  09:11        0.62
  367                  JUNCTION     0.04     0.04     2.32     0  02:44        0.04
  368                  JUNCTION     0.06     0.06     1.57     0  04:41        0.06
  369                  JUNCTION     0.07     0.07     0.64     0  04:41        0.07
  37                   JUNCTION     0.53     0.57    19.18     0  03:06        0.57
  370                  JUNCTION     0.05     0.05     0.18     0  04:41        0.05
  371                  JUNCTION     0.07     0.07    -1.52     0  04:41        0.07
  372                  JUNCTION     0.04     0.04     4.04     0  02:10        0.04
  373                  JUNCTION     0.04     0.04     4.13     0  02:42        0.04
  374                  JUNCTION     0.03     0.03     4.93     0  02:30        0.03
  374C                 JUNCTION     0.02     0.02     5.12     0  01:06        0.02
  375                  JUNCTION     0.04     0.04     4.10     0  02:49        0.04
  376                  JUNCTION     0.06     0.06     2.30     0  04:15        0.06
  377                  JUNCTION     0.55     0.57    -3.99     0  06:35        0.57
  378                  JUNCTION     0.06     0.06     5.53     0  04:22        0.06
  379                  JUNCTION     0.04     0.04     6.22     0  03:49        0.04
  38                   JUNCTION     0.04     0.04    21.18     0  01:52        0.04
  380                  JUNCTION     0.04     0.04     7.04     0  03:40        0.04
  381                  JUNCTION     0.03     0.03     7.83     0  02:18        0.03
  382                  JUNCTION     0.06     0.06     5.57     0  03:25        0.06
  382A                 JUNCTION     0.02     0.02     5.80     0  00:13        0.02
  383                  JUNCTION     0.07     0.07     6.33     0  03:22        0.07
  384                  JUNCTION     0.05     0.05     6.96     0  02:42        0.05
  385                  JUNCTION     0.04     0.04     7.59     0  02:34        0.04
  386                  JUNCTION     0.03     0.03     8.23     0  01:34        0.03
  387                  JUNCTION     0.05     0.05     3.30     0  02:45        0.05
  388                  JUNCTION     0.03     0.03     6.05     0  01:45        0.03
  389                  JUNCTION     0.03     0.03     5.07     0  01:33        0.03
  389C                 JUNCTION     0.02     0.02     5.90     0  00:34        0.02
  39                   JUNCTION     0.05     0.05    20.60     0  00:19        0.05
  390                  JUNCTION     0.06     0.06     2.30     0  04:33        0.06
  391                  JUNCTION     0.56     0.58    -4.32     0  06:35        0.58
  392                  JUNCTION     0.04     0.04     6.14     0  04:00        0.04
  393                  JUNCTION     0.04     0.04     6.15     0  04:25        0.04
  394                  JUNCTION     0.07     0.07     4.91     0  03:43        0.07
  395                  JUNCTION     0.04     0.04     7.09     0  00:11        0.04
  396                  JUNCTION     0.05     0.05     6.26     0  05:14        0.05
  397                  JUNCTION     0.06     0.06     5.33     0  05:14        0.06
  398                  JUNCTION     0.03     0.03     5.95     0  02:48        0.03
  399                  JUNCTION     0.06     0.06     2.47     0  03:06        0.06
  4                    JUNCTION     0.75     0.81    19.18     0  03:11        0.81
  40                   JUNCTION     0.07     0.07    20.02     0  04:05        0.07
  400                  JUNCTION     0.05     0.05     5.36     0  02:58        0.05
  4002                 JUNCTION     0.24     0.25   -13.75     0  11:57        0.25
  401                  JUNCTION     0.05     0.05     4.27     0  02:40        0.05
  402                  JUNCTION     0.04     0.04     3.62     0  02:43        0.04
  403                  JUNCTION     0.07     0.07     1.35     0  03:03        0.07
  404                  JUNCTION     0.57     0.59    -4.65     0  06:35        0.59
  405                  JUNCTION     0.06     0.06     4.47     0  05:05        0.06
  406                  JUNCTION     0.05     0.05     5.22     0  04:57        0.05
  407                  JUNCTION     0.02     0.02     6.03     0  04:58        0.02
  408                  JUNCTION     0.02     0.02     6.80     0  00:17        0.02
  409                  JUNCTION     0.07     0.08     4.15     0  03:50        0.08
  409A                 JUNCTION     0.01     0.01     4.21     0  01:45        0.01
  41                   JUNCTION     0.11     0.13    19.38     0  01:15        0.13
  410                  JUNCTION     0.10     0.10     3.40     0  05:20        0.10
  411                  JUNCTION     0.08     0.08     4.32     0  05:19        0.08
  412                  JUNCTION     0.06     0.06     4.86     0  05:16        0.06
  413                  JUNCTION     0.07     0.07     1.64     0  03:15        0.07
  414                  JUNCTION     0.06     0.06     4.53     0  04:15        0.06
  415                  JUNCTION     0.04     0.04     5.10     0  02:39        0.04
  415C                 JUNCTION     0.02     0.02     5.27     0  01:06        0.02
  416                  JUNCTION     0.03     0.03     4.86     0  00:07        0.03
  417                  JUNCTION     0.05     0.05     1.38     0  04:05        0.05
  418                  JUNCTION     0.56     0.59    -4.98     0  06:36        0.59
  419                  JUNCTION     0.04     0.04     2.92     0  00:11        0.04
  42                   JUNCTION     0.09     0.09    21.69     0  05:32        0.09
  420                  JUNCTION     0.03     0.03     3.65     0  00:16        0.03
  421                  JUNCTION     0.06     0.06     3.59     0  04:19        0.06
  422                  JUNCTION     0.08     0.08     2.82     0  04:19        0.08
  423                  JUNCTION     0.11     0.11     0.75     0  04:28        0.11
  424                  JUNCTION     0.57     0.60    -5.31     0  06:37        0.60
  425                  JUNCTION     0.07     0.07     2.11     0  04:44        0.07
  426                  JUNCTION     0.06     0.06     2.69     0  04:25        0.06
  427                  JUNCTION     0.15     0.15     3.27     0  04:17        0.15
  428                  JUNCTION     0.03     0.03     3.62     0  02:10        0.03
  428C                 JUNCTION     0.03     0.03     4.13     0  02:07        0.03
  429                  JUNCTION     0.04     0.04     4.65     0  02:51        0.04
  429C                 JUNCTION     0.03     0.03     4.89     0  00:06        0.03
  43                   JUNCTION     0.04     0.04    22.38     0  02:06        0.04
  430                  JUNCTION     0.07     0.07     0.80     0  03:24        0.07
  431                  JUNCTION     0.08     0.08    -0.01     0  03:30        0.08
  432                  JUNCTION     0.09     0.09    -0.74     0  03:56        0.09
  433                  JUNCTION     0.54     0.56    -5.64     0  06:37        0.56
  434                  JUNCTION     0.10     0.10     1.28     0  04:45        0.10
  435                  JUNCTION     0.53     0.56    -6.02     0  06:39        0.56
  436                  JUNCTION     0.07     0.07     1.62     0  03:43        0.07
  437                  JUNCTION     0.07     0.07     2.47     0  03:41        0.07
  438                  JUNCTION     0.06     0.06     3.30     0  03:05        0.06
  439                  JUNCTION     0.05     0.05     4.06     0  02:53        0.05
  439C                 JUNCTION     0.02     0.02     4.11     0  01:06        0.02
  44                   JUNCTION     0.04     0.04    21.71     0  01:51        0.04
  440                  JUNCTION     0.03     0.03     3.94     0  00:08        0.03
  441                  JUNCTION     0.04     0.04     3.43     0  03:54        0.04
  442                  JUNCTION     0.10     0.10     2.89     0  05:20        0.10
  443                  JUNCTION     0.11     0.11     2.36     0  05:22        0.11
  444                  JUNCTION     0.07     0.08     2.85     0  03:31        0.08
  444C                 JUNCTION     0.02     0.02     3.13     0  01:43        0.02
  445                  JUNCTION     0.08     0.08     2.13     0  03:35        0.08
  446                  JUNCTION     0.09     0.09     1.41     0  03:40        0.09
  447                  JUNCTION     0.10     0.10     0.70     0  03:55        0.10
  448                  JUNCTION     0.47     0.48    -3.41     0  06:35        0.48
  449                  JUNCTION     0.33     0.33     0.89     0  04:54        0.33
  45                   JUNCTION     0.05     0.05    21.12     0  00:19        0.05
  450                  JUNCTION     0.30     0.31     1.54     0  04:54        0.31
  451                  JUNCTION     0.30     0.30     2.20     0  04:53        0.30
  452                  JUNCTION     0.29     0.29     2.87     0  04:43        0.29
  453                  JUNCTION     0.29     0.29     3.54     0  04:19        0.29
  454                  JUNCTION     0.28     0.28     4.27     0  04:21        0.28
  455                  JUNCTION     0.25     0.27     4.93     0  00:11        0.26
  456                  JUNCTION     0.25     0.26     5.59     0  00:08        0.26
  457                  JUNCTION     0.25     0.26     6.29     0  00:04        0.26
  458                  JUNCTION     0.07     0.07     3.62     0  03:29        0.07
  458C                 JUNCTION     0.03     0.03     4.01     0  00:07        0.03
  459                  JUNCTION     0.06     0.07     4.28     0  03:08        0.07
  46                   JUNCTION     0.07     0.07    20.54     0  04:07        0.07
  460                  JUNCTION     0.05     0.05     4.82     0  02:48        0.05
  461                  JUNCTION     0.05     0.05     5.38     0  02:43        0.05
  462                  JUNCTION     0.04     0.04     5.93     0  02:36        0.04
  464                  JUNCTION     0.06     0.06     4.93     0  03:36        0.06
  465                  JUNCTION     0.06     0.06     5.21     0  03:38        0.06
  466                  JUNCTION     0.06     0.06     4.79     0  04:54        0.06
  467                  JUNCTION     0.05     0.05     5.87     0  04:45        0.05
  468                  JUNCTION     0.06     0.06     4.25     0  03:20        0.06
  469                  JUNCTION     0.11     0.11     4.83     0  04:21        0.11
  47                   JUNCTION     0.10     0.10    19.86     0  04:09        0.10
  470                  JUNCTION     0.05     0.05     5.90     0  02:53        0.05
  471                  JUNCTION     0.04     0.04     6.92     0  02:08        0.04
  472                  JUNCTION     0.03     0.03     7.94     0  01:18        0.03
  473                  JUNCTION     0.06     0.06     4.23     0  03:49        0.06
  474                  JUNCTION     0.06     0.06     4.96     0  03:48        0.06
  475                  JUNCTION     0.04     0.04     5.58     0  00:17        0.04
  476                  JUNCTION     0.03     0.03     6.21     0  01:34        0.03
  477                  JUNCTION     0.03     0.03     6.53     0  02:35        0.03
  478                  JUNCTION     0.43     0.45    -2.32     0  06:33        0.45
  479                  JUNCTION     0.04     0.04     5.52     0  02:22        0.04
  48                   JUNCTION     0.03     0.03    22.74     0  01:59        0.03
  480                  JUNCTION     0.04     0.04     5.81     0  02:24        0.04
  481                  JUNCTION     0.05     0.05     5.51     0  04:52        0.05
  482                  JUNCTION     0.03     0.03     6.60     0  00:10        0.03
  483                  JUNCTION     0.43     0.45    -2.88     0  06:35        0.45
  483A                 JUNCTION     0.05     0.05     5.08     0  02:59        0.05
  484                  JUNCTION     0.08     0.09     6.09     0  04:20        0.09
  485                  JUNCTION     0.10     0.10     5.46     0  04:20        0.10
  486                  JUNCTION     0.05     0.05     6.54     0  02:53        0.05
  487                  JUNCTION     0.04     0.04     7.56     0  02:08        0.04
  488                  JUNCTION     0.03     0.03     8.58     0  01:19        0.03
  489                  JUNCTION     0.07     0.07     6.84     0  03:10        0.07
  49                   JUNCTION     0.04     0.04    22.17     0  02:58        0.04
  490                  JUNCTION     0.04     0.04     7.40     0  02:25        0.04
  491                  JUNCTION     0.03     0.03     7.98     0  00:08        0.03
  492                  JUNCTION     0.04     0.04     6.44     0  04:51        0.04
  492A                 JUNCTION     0.03     0.03     6.73     0  00:06        0.03
  493                  JUNCTION     0.03     0.03     8.25     0  00:06        0.03
  494                  JUNCTION     0.04     0.04     7.83     0  02:45        0.04
  495                  JUNCTION     0.05     0.05     7.40     0  02:51        0.05
  496                  JUNCTION     0.04     0.04     8.37     0  00:10        0.04
  497                  JUNCTION     0.05     0.05     7.66     0  04:18        0.05
  498                  JUNCTION     0.06     0.06     6.84     0  04:19        0.06
  499                  JUNCTION     0.03     0.03     5.74     0  02:16        0.03
  499C                 JUNCTION     0.02     0.02     5.96     0  00:55        0.02
  5                    JUNCTION     1.65     1.73    19.18     0  03:10        1.73
  50                   JUNCTION     0.06     0.06    21.60     0  03:06        0.06
  500                  JUNCTION     0.06     0.06     7.26     0  02:59        0.06
  501                  JUNCTION     0.07     0.07     6.43     0  03:06        0.07
  502                  JUNCTION     0.07     0.07     5.63     0  03:16        0.07
  503                  JUNCTION     0.03     0.03     6.43     0  01:32        0.03
  505                  JUNCTION     0.03     0.03     6.46     0  02:48        0.03
  506                  JUNCTION     0.07     0.07     3.57     0  03:49        0.07
  507                  JUNCTION     0.07     0.07     4.24     0  03:12        0.07
  508                  JUNCTION     0.05     0.05     4.78     0  02:58        0.05
  509                  JUNCTION     0.05     0.05     5.33     0  02:55        0.05
  51                   JUNCTION     0.07     0.07    21.04     0  03:46        0.07
  510                  JUNCTION     0.04     0.04     5.88     0  02:50        0.04
  511                  JUNCTION     0.43     0.45    -1.76     0  06:32        0.45
  512                  JUNCTION     0.08     0.08     4.84     0  04:13        0.08
  513                  JUNCTION     0.12     0.12     1.62     0  04:01        0.12
  514                  JUNCTION     0.12     0.12     1.15     0  04:01        0.12
  515                  JUNCTION     0.13     0.13     0.69     0  04:01        0.13
  516                  JUNCTION     0.14     0.14     0.03     0  04:03        0.14
  517                  JUNCTION     0.15     0.15    -0.41     0  04:06        0.15
  518                  JUNCTION     0.43     0.44    -1.21     0  06:32        0.44
  519                  JUNCTION     0.25     0.26    -0.51     0  05:37        0.26
  52                   JUNCTION     0.07     0.07    20.36     0  03:48        0.07
  520                  JUNCTION     0.23     0.24     0.13     0  05:37        0.24
  522                  JUNCTION     0.23     0.24     0.69     0  05:34        0.24
  522A                 JUNCTION     0.03     0.04     8.04     0  00:10        0.04
  523                  JUNCTION     0.23     0.23     1.29     0  05:33        0.23
  524                  JUNCTION     0.23     0.23     2.00     0  05:33        0.23
  525                  JUNCTION     0.22     0.23     2.71     0  05:33        0.23
  526                  JUNCTION     0.03     0.03     9.53     0  02:32        0.03
  527                  JUNCTION     0.05     0.05     7.88     0  02:48        0.05
  528                  JUNCTION     0.05     0.05     8.52     0  02:40        0.05
  529                  JUNCTION     0.04     0.04     9.14     0  02:29        0.04
  53                   JUNCTION     0.86     0.92    19.18     0  02:58        0.92
  530                  JUNCTION     0.22     0.23     3.43     0  05:32        0.23
  531                  JUNCTION     0.09     0.09     5.85     0  04:13        0.09
  532                  JUNCTION     0.16     0.16     7.22     0  02:48        0.16
  533                  JUNCTION     0.03     0.03     7.39     0  00:24        0.03
  534                  JUNCTION     0.06     0.06     7.66     0  02:45        0.06
  535                  JUNCTION     0.03     0.03     9.56     0  00:07        0.03
  536                  JUNCTION     0.04     0.04     9.03     0  00:15        0.04
  537                  JUNCTION     0.05     0.05     8.50     0  02:40        0.05
  538                  JUNCTION     0.05     0.05     8.10     0  02:42        0.05
  538C                 JUNCTION     0.02     0.02     8.27     0  00:46        0.02
  539                  JUNCTION     0.03     0.03    10.79     0  01:37        0.03
  54                   JUNCTION     0.02     0.02    20.61     0  02:36        0.02
  540                  JUNCTION     0.03     0.03    10.53     0  02:03        0.03
  541                  JUNCTION     0.04     0.04    12.04     0  01:57        0.04
  542                  JUNCTION     0.05     0.05    10.11     0  02:34        0.05
  543                  JUNCTION     0.06     0.06     9.42     0  04:00        0.06
  544                  JUNCTION     0.04     0.04     9.86     0  02:46        0.04
  545                  JUNCTION     0.05     0.05     9.19     0  02:59        0.05
  546                  JUNCTION     0.06     0.06     8.52     0  03:06        0.06
  547                  JUNCTION     0.05     0.05    11.21     0  03:12        0.05
  548                  JUNCTION     0.06     0.06    10.38     0  00:35        0.06
  549                  JUNCTION     0.06     0.06     9.54     0  00:58        0.06
  55                   JUNCTION     0.03     0.03    22.28     0  02:34        0.03
  550                  JUNCTION     0.08     0.08     7.26     0  04:11        0.08
  551                  JUNCTION     0.07     0.07     7.89     0  04:04        0.07
  552                  JUNCTION     0.06     0.06     8.62     0  04:03        0.06
  553                  JUNCTION     0.02     0.02     8.89     0  01:23        0.02
  554                  JUNCTION     0.07     0.07     7.85     0  03:27        0.07
  555                  JUNCTION     0.07     0.07     7.73     0  01:01        0.07
  556                  JUNCTION     0.07     0.07     6.64     0  03:33        0.07
  557                  JUNCTION     0.05     0.05     7.33     0  02:48        0.05
  558                  JUNCTION     0.04     0.04     7.96     0  02:30        0.04
  559                  JUNCTION     0.03     0.03     8.58     0  00:08        0.03
  56                   JUNCTION     0.05     0.05    21.54     0  03:50        0.05
  560                  JUNCTION     0.10     0.10     7.10     0  01:17        0.10
  561                  JUNCTION     0.10     0.11     6.28     0  01:25        0.11
  562                  JUNCTION     0.11     0.11     5.45     0  01:32        0.11
  563                  JUNCTION     0.17     0.17     4.34     0  05:32        0.17
  564                  JUNCTION     0.16     0.16     5.05     0  05:32        0.16
  565                  JUNCTION     0.13     0.13     9.33     0  05:32        0.13
  566                  JUNCTION     0.05     0.05    11.21     0  00:42        0.05
  567                  JUNCTION     0.04     0.04    13.06     0  00:32        0.04
  568                  JUNCTION     0.03     0.03    14.91     0  00:27        0.03
  569                  JUNCTION     0.04     0.04    15.74     0  00:13        0.04
  57                   JUNCTION     0.06     0.06    20.80     0  04:00        0.06
  570                  JUNCTION     0.10     0.10     4.37     0  04:36        0.10
  571                  JUNCTION     0.11     0.11     5.27     0  04:31        0.11
  572                  JUNCTION     0.08     0.08     6.14     0  04:31        0.08
  573                  JUNCTION     0.08     0.08     7.03     0  04:27        0.08
  574                  JUNCTION     0.05     0.05    10.83     0  03:42        0.05
  575                  JUNCTION     0.06     0.06    10.17     0  04:30        0.06
  576                  JUNCTION     0.21     0.21    10.12     0  05:36        0.21
  577                  JUNCTION     0.10     0.10    10.72     0  05:36        0.10
  578                  JUNCTION     0.09     0.09    11.31     0  05:35        0.09
  579                  JUNCTION     0.08     0.08    12.07     0  04:15        0.08
  58                   JUNCTION     0.07     0.07    20.06     0  04:05        0.07
  580                  JUNCTION     0.06     0.06    12.69     0  01:05        0.06
  581                  JUNCTION     0.07     0.07     7.92     0  04:23        0.07
  582                  JUNCTION     0.07     0.07     8.76     0  04:18        0.07
  583                  JUNCTION     0.06     0.06     9.58     0  04:13        0.06
  584                  JUNCTION     0.06     0.06    11.54     0  03:39        0.06
  585                  JUNCTION     0.04     0.04    12.12     0  02:23        0.04
  586                  JUNCTION     0.03     0.03    12.71     0  01:32        0.03
  587                  JUNCTION     0.04     0.04    10.86     0  04:30        0.04
  588                  JUNCTION     0.03     0.03    11.45     0  00:09        0.03
  589                  JUNCTION     0.05     0.05    12.21     0  05:36        0.05
  59                   JUNCTION     0.09     0.10    19.34     0  02:32        0.10
  590                  JUNCTION     0.05     0.05    13.52     0  00:24        0.05
  590B                 JUNCTION     0.03     0.03    13.03     0  02:47        0.03
  590C                 JUNCTION     0.02     0.02    13.26     0  01:08        0.02
  591                  JUNCTION     0.06     0.06    10.21     0  04:12        0.06
  592                  JUNCTION     0.05     0.05    10.76     0  04:10        0.05
  593                  JUNCTION     0.04     0.04    11.57     0  04:07        0.04
  593C                 JUNCTION     0.02     0.02    11.73     0  00:06        0.02
  594                  JUNCTION     0.03     0.03    13.23     0  00:07        0.03
  595                  JUNCTION     0.04     0.04    12.64     0  00:16        0.04
  597                  JUNCTION     0.04     0.04    14.35     0  02:09        0.04
  597C                 JUNCTION     0.02     0.02    14.57     0  00:48        0.02
  598                  JUNCTION     0.03     0.03    11.60     0  02:06        0.03
  599                  JUNCTION     0.09     0.09     2.45     0  04:00        0.09
  6                    JUNCTION     0.17     0.19    18.68     0  03:26        0.19
  60                   JUNCTION     0.04     0.04    21.91     0  01:47        0.04
  600                  JUNCTION     0.06     0.06     1.42     0  03:42        0.06
  601                  JUNCTION     0.04     0.04     0.55     0  01:00        0.04
  602                  JUNCTION     0.38     0.39    -0.78     0  06:32        0.39
  603                  JUNCTION     0.36     0.38    -0.42     0  06:30        0.38
  604                  JUNCTION     0.34     0.36    -0.10     0  06:30        0.36
  605                  JUNCTION     0.09     0.09     3.21     0  04:16        0.09
  606                  JUNCTION     0.08     0.09     4.45     0  04:10        0.09
  607                  JUNCTION     0.08     0.08     5.55     0  04:07        0.08
  608                  JUNCTION     0.07     0.07     6.65     0  04:05        0.07
  609                  JUNCTION     0.07     0.07     7.76     0  04:05        0.07
  61                   JUNCTION     0.05     0.05    21.34     0  02:58        0.05
  610                  JUNCTION     0.05     0.05     8.77     0  04:04        0.05
  611                  JUNCTION     0.06     0.06     4.52     0  03:38        0.06
  612                  JUNCTION     0.03     0.03     6.29     0  00:30        0.03
  613                  JUNCTION     0.02     0.02     6.83     0  00:40        0.02
  614                  JUNCTION     0.34     0.36     0.22     0  06:28        0.36
  615                  JUNCTION     0.09     0.09     4.72     0  04:08        0.09
  616                  JUNCTION     0.08     0.08     5.50     0  04:07        0.08
  617                  JUNCTION     0.08     0.08     6.76     0  04:07        0.08
  618                  JUNCTION     0.05     0.05     7.78     0  04:06        0.05
  619                  JUNCTION     0.02     0.02     8.22     0  01:19        0.02
  62                   JUNCTION     0.07     0.07    20.61     0  00:29        0.07
  620                  JUNCTION     0.05     0.05     8.84     0  03:17        0.05
  621                  JUNCTION     0.08     0.08     5.38     0  03:33        0.08
  622                  JUNCTION     0.04     0.04     7.14     0  00:17        0.04
  623                  JUNCTION     0.03     0.03     7.68     0  00:24        0.03
  624                  JUNCTION     0.06     0.06     5.27     0  03:14        0.06
  624A                 JUNCTION     0.02     0.02     5.55     0  01:26        0.02
  625                  JUNCTION     0.08     0.08     4.62     0  00:58        0.08
  626                  JUNCTION     0.10     0.10     3.97     0  01:14        0.10
  627                  JUNCTION     0.33     0.34     0.73     0  06:27        0.34
  628                  JUNCTION     0.04     0.04     9.12     0  03:10        0.04
  629                  JUNCTION     0.06     0.06     7.85     0  03:13        0.06
  63                   JUNCTION     0.06     0.07    19.87     0  00:47        0.07
  630                  JUNCTION     0.05     0.05     9.10     0  04:04        0.05
  631                  JUNCTION     0.04     0.04     9.74     0  02:02        0.04
  632                  JUNCTION     0.05     0.05    10.09     0  04:03        0.05
  633                  JUNCTION     0.06     0.06     6.20     0  03:31        0.06
  634                  JUNCTION     0.05     0.05     6.44     0  03:10        0.05
  635                  JUNCTION     0.04     0.04     6.90     0  00:45        0.04
  636                  JUNCTION     0.05     0.05     5.41     0  02:35        0.05
  637                  JUNCTION     0.31     0.33     1.25     0  06:26        0.33
  638                  JUNCTION     0.03     0.03     9.33     0  01:25        0.03
  639                  JUNCTION     0.04     0.04     8.78     0  02:19        0.04
  64                   JUNCTION     0.02     0.02    21.31     0  01:38        0.02
  640                  JUNCTION     0.06     0.06     7.04     0  03:25        0.06
  640A                 JUNCTION     0.05     0.05     7.87     0  03:16        0.05
  641                  JUNCTION     0.05     0.05     7.09     0  00:21        0.05
  642                  JUNCTION     0.05     0.05     7.63     0  00:27        0.05
  643                  JUNCTION     0.04     0.04     6.80     0  01:54        0.04
  644                  JUNCTION     0.31     0.33     1.79     0  06:24        0.33
  646                  JUNCTION     0.04     0.04     7.73     0  02:57        0.04
  646A                 JUNCTION     0.03     0.03     8.16     0  02:56        0.03
  647                  JUNCTION     0.04     0.04     8.38     0  01:34        0.04
  648                  JUNCTION     0.03     0.03     8.19     0  01:38        0.03
  649                  JUNCTION     0.02     0.02     9.03     0  01:37        0.02
  65                   JUNCTION     0.04     0.04    20.96     0  02:59        0.04
  650                  JUNCTION     0.31     0.32     2.33     0  06:22        0.32
  651                  JUNCTION     0.03     0.03    10.36     0  02:13        0.03
  652                  JUNCTION     0.03     0.03     9.65     0  02:16        0.03
  653                  JUNCTION     0.03     0.03    10.30     0  00:10        0.03
  654                  JUNCTION     0.03     0.03    10.62     0  01:12        0.03
  655                  JUNCTION     0.03     0.03     8.69     0  02:03        0.03
  656                  JUNCTION     0.03     0.03     8.98     0  01:34        0.03
  657                  JUNCTION     0.04     0.04     7.78     0  02:35        0.04
  658                  JUNCTION     0.05     0.05     6.59     0  03:20        0.05
  659                  JUNCTION     0.31     0.32     2.87     0  06:22        0.32
  66                   JUNCTION     0.06     0.06    20.22     0  03:28        0.06
  660                  JUNCTION     0.05     0.05     6.52     0  04:01        0.05
  661                  JUNCTION     0.04     0.04     7.78     0  03:07        0.04
  662                  JUNCTION     0.03     0.03     9.05     0  02:04        0.03
  663                  JUNCTION     0.03     0.03    11.33     0  00:10        0.03
  664                  JUNCTION     0.11     0.11     6.19     0  04:28        0.11
  664A                 JUNCTION     0.02     0.02     6.33     0  01:08        0.02
  665                  JUNCTION     0.16     0.16     5.56     0  05:06        0.16
  666                  JUNCTION     0.17     0.18     4.81     0  05:07        0.18
  667                  JUNCTION     0.17     0.18     4.15     0  05:09        0.18
  668                  JUNCTION     0.30     0.31     3.51     0  06:22        0.31
  669                  JUNCTION     0.09     0.09     7.72     0  04:25        0.09
  67                   JUNCTION     0.07     0.07    19.49     0  03:36        0.07
  670                  JUNCTION     0.07     0.07     8.38     0  04:22        0.07
  671                  JUNCTION     0.05     0.05     8.94     0  04:23        0.05
  672                  JUNCTION     0.05     0.05     9.52     0  04:20        0.05
  673                  JUNCTION     0.04     0.04    10.32     0  04:18        0.04
  673C                 JUNCTION     0.02     0.02    10.58     0  00:58        0.02
  674                  JUNCTION     0.11     0.11     6.89     0  04:23        0.11
  675                  JUNCTION     0.10     0.10     6.19     0  05:06        0.10
  676                  JUNCTION     0.09     0.09     5.52     0  01:13        0.09
  677                  JUNCTION     0.23     0.24     4.02     0  06:21        0.24
  678                  JUNCTION     0.04     0.04     9.22     0  03:20        0.04
  679                  JUNCTION     0.05     0.05     9.13     0  04:07        0.05
  68                   JUNCTION     0.11     0.12    18.80     0  02:41        0.12
  680                  JUNCTION     0.03     0.03    10.39     0  01:51        0.03
  681                  JUNCTION     0.10     0.11     7.73     0  04:19        0.11
  682                  JUNCTION     0.10     0.10     7.04     0  05:02        0.10
  683                  JUNCTION     0.08     0.08     6.30     0  05:01        0.08
  684                  JUNCTION     0.24     0.24     4.60     0  06:19        0.24
  685                  JUNCTION     0.04     0.04    10.01     0  00:12        0.04
  686                  JUNCTION     0.03     0.03     9.66     0  01:38        0.03
  687                  JUNCTION     0.13     0.14     6.92     0  06:12        0.14
  688                  JUNCTION     0.13     0.14     7.74     0  06:09        0.14
  689                  JUNCTION     0.10     0.10     8.56     0  04:15        0.10
  69                   JUNCTION     0.02     0.02    20.92     0  01:59        0.02
  690                  JUNCTION     0.09     0.09     7.87     0  04:58        0.09
  691                  JUNCTION     0.08     0.08     7.09     0  04:57        0.08
  692                  JUNCTION     0.07     0.08     9.09     0  04:24        0.08
  693                  JUNCTION     0.22     0.23     5.12     0  06:19        0.23
  694                  JUNCTION     0.16     0.16     6.07     0  06:19        0.16
  695                  JUNCTION     0.08     0.08     8.71     0  04:09        0.08
  696                  JUNCTION     0.03     0.03     9.46     0  00:10        0.03
  697                  JUNCTION     0.14     0.15     8.64     0  06:08        0.15
  698                  JUNCTION     0.14     0.15    10.01     0  06:05        0.15
  699                  JUNCTION     0.12     0.13    10.62     0  05:59        0.13
  7                    JUNCTION     0.17     0.19    18.18     0  03:31        0.19
  70                   JUNCTION     0.05     0.05    20.55     0  00:22        0.05
  700                  JUNCTION     0.85     0.88    11.37     0  05:58        0.88
  701                  JUNCTION     0.09     0.10     9.40     0  04:09        0.10
  702                  JUNCTION     0.09     0.09     8.70     0  04:54        0.09
  703                  JUNCTION     0.08     0.08     7.94     0  04:53        0.08
  704                  JUNCTION     0.08     0.08    10.02     0  04:20        0.08
  705                  JUNCTION     0.18     0.19     7.34     0  04:17        0.19
  706                  JUNCTION     0.11     0.11     8.06     0  01:02        0.11
  707                  JUNCTION     0.08     0.08     9.57     0  04:06        0.08
  708                  JUNCTION     0.06     0.06    10.26     0  03:40        0.06
  709                  JUNCTION     0.05     0.05    10.93     0  02:56        0.05
  71                   JUNCTION     0.02     0.02    20.70     0  00:56        0.02
  710                  JUNCTION     0.04     0.04    11.76     0  00:14        0.04
  710C                 JUNCTION     0.02     0.02    11.98     0  00:54        0.02
  711                  JUNCTION     0.09     0.09    10.23     0  04:05        0.09
  712                  JUNCTION     0.06     0.06    11.01     0  04:50        0.06
  713                  JUNCTION     0.05     0.05    11.46     0  04:50        0.05
  714                  JUNCTION     0.05     0.05    12.09     0  00:55        0.05
  715                  JUNCTION     0.14     0.14     8.00     0  04:12        0.14
  716                  JUNCTION     0.06     0.06    12.36     0  04:18        0.06
  717                  JUNCTION     0.04     0.04    10.35     0  03:46        0.04
  718                  JUNCTION     0.08     0.08    11.05     0  03:59        0.08
  719                  JUNCTION     0.08     0.08    11.76     0  04:47        0.08
  72                   JUNCTION     0.06     0.06    19.74     0  01:13        0.06
  720                  JUNCTION     0.07     0.07    12.28     0  04:47        0.07
  721                  JUNCTION     0.05     0.05    12.93     0  00:39        0.05
  722                  JUNCTION     0.14     0.14     8.84     0  04:12        0.14
  723                  JUNCTION     0.05     0.05    13.05     0  02:38        0.05
  724                  JUNCTION     0.03     0.03    11.03     0  03:43        0.03
  725                  JUNCTION     0.01     0.01    11.76     0  03:16        0.01
  726                  JUNCTION     0.05     0.05    11.42     0  03:51        0.05
  727                  JUNCTION     0.23     0.24    11.37     0  05:58        0.24
  728                  JUNCTION     0.10     0.11    11.91     0  01:05        0.11
  729                  JUNCTION     0.07     0.07    12.65     0  03:57        0.07
  73                   JUNCTION     0.06     0.07    18.92     0  01:43        0.07
  731                  JUNCTION     0.08     0.08    12.82     0  04:08        0.08
  732                  JUNCTION     0.06     0.06    13.48     0  02:58        0.06
  732A                 JUNCTION     0.06     0.07    12.14     0  01:00        0.07
  733                  JUNCTION     0.04     0.04    12.19     0  03:13        0.04
  734                  JUNCTION     0.06     0.07    13.64     0  00:22        0.06
  735                  JUNCTION     0.05     0.05    14.30     0  02:32        0.05
  736                  JUNCTION     0.03     0.03    12.71     0  03:04        0.03
  737                  JUNCTION     0.03     0.03    13.47     0  00:12        0.03
  738                  JUNCTION     0.03     0.03    14.15     0  00:08        0.03
  739                  JUNCTION     0.04     0.04    13.55     0  02:26        0.04
  74                   JUNCTION     0.14     0.14    18.40     0  02:46        0.14
  740                  JUNCTION     0.05     0.05    12.94     0  02:38        0.05
  741                  JUNCTION     0.05     0.05    14.26     0  02:08        0.05
  742                  JUNCTION     0.04     0.04    14.81     0  02:15        0.04
  743                  JUNCTION     0.03     0.03    15.40     0  00:08        0.03
  744                  JUNCTION     0.05     0.05    14.91     0  00:08        0.05
  745                  JUNCTION     0.03     0.03    12.68     0  02:23        0.03
  746                  JUNCTION     0.04     0.04    13.74     0  00:08        0.04
  747                  JUNCTION     0.14     0.14     9.68     0  04:11        0.14
  748                  JUNCTION     0.14     0.14    10.56     0  04:11        0.14
  749                  JUNCTION     0.04     0.04    11.13     0  00:52        0.04
  75                   JUNCTION     0.03     0.03    21.41     0  00:11        0.03
  750                  JUNCTION     0.03     0.04    11.85     0  00:26        0.03
  751                  JUNCTION     0.08     0.08    11.87     0  03:54        0.08
  752                  JUNCTION     0.07     0.07    12.52     0  04:45        0.07
  753                  JUNCTION     0.06     0.06    13.01     0  04:51        0.06
  754                  JUNCTION     0.04     0.04    13.76     0  02:33        0.04
  755                  JUNCTION     0.07     0.07    12.57     0  03:51        0.07
  756                  JUNCTION     0.06     0.06    13.25     0  04:44        0.06
  757                  JUNCTION     0.05     0.05    13.81     0  04:51        0.05
  758                  JUNCTION     0.03     0.03    14.27     0  01:38        0.03
  759                  JUNCTION     0.10     0.10    12.03     0  04:10        0.10
  76                   JUNCTION     0.06     0.06    20.48     0  05:06        0.06
  760                  JUNCTION     0.04     0.04    14.61     0  04:47        0.04
  761                  JUNCTION     0.03     0.03    15.13     0  00:08        0.03
  762                  JUNCTION     0.13     0.14    12.50     0  04:09        0.14
  763                  JUNCTION     0.04     0.04    14.42     0  00:55        0.04
  764                  JUNCTION     0.06     0.06    15.28     0  00:39        0.06
  765                  JUNCTION     0.04     0.04    16.13     0  02:01        0.04
  766                  JUNCTION     0.06     0.06    13.77     0  04:43        0.06
  767                  JUNCTION     0.06     0.06    14.64     0  04:41        0.06
  768                  JUNCTION     0.04     0.04    15.53     0  00:11        0.04
  769                  JUNCTION     0.06     0.06    13.40     0  03:49        0.06
  77                   JUNCTION     0.07     0.07    21.31     0  05:04        0.07
  770                  JUNCTION     0.06     0.06    14.20     0  03:48        0.06
  771                  JUNCTION     0.05     0.05    14.86     0  02:40        0.05
  772                  JUNCTION     0.04     0.04    15.57     0  00:09        0.04
  773                  JUNCTION     0.06     0.06    13.76     0  04:09        0.06
  774                  JUNCTION     0.11     0.11    13.14     0  04:08        0.11
  775                  JUNCTION     0.07     0.07    15.04     0  00:36        0.07
  776                  JUNCTION     0.11     0.11    15.85     0  00:25        0.11
  777                  JUNCTION     0.09     0.10    16.42     0  00:11        0.09
  778                  JUNCTION     0.06     0.06    14.63     0  04:07        0.06
  779                  JUNCTION     0.05     0.05    15.34     0  02:42        0.05
  78                   JUNCTION     0.04     0.05    22.01     0  00:11        0.05
  780                  JUNCTION     0.04     0.04    16.03     0  00:08        0.04
  781                  JUNCTION     0.13     0.14    16.46     0  00:06        0.14
  781A                 JUNCTION     0.09     0.10    16.96     0  00:05        0.10
  782                  JUNCTION     0.14     0.14    15.73     0  01:37        0.14
  783                  JUNCTION     0.18     0.18    14.86     0  00:16        0.18
  784                  JUNCTION     0.18     0.18    13.97     0  01:51        0.18
  785                  JUNCTION     0.22     0.22    13.12     0  02:27        0.22
  785A                 JUNCTION     0.42     0.43     4.58     0  05:15        0.43
  786                  JUNCTION     0.07     0.07    16.90     0  01:05        0.07
  787                  JUNCTION     0.11     0.11    16.21     0  01:58        0.11
  788                  JUNCTION     0.13     0.13    15.27     0  02:07        0.13
  789                  JUNCTION     0.16     0.16    14.34     0  00:23        0.16
  79                   JUNCTION     0.02     0.02    19.45     0  01:02        0.02
  790                  JUNCTION     0.17     0.17    13.39     0  03:02        0.17
  791                  JUNCTION     0.02     0.02    18.08     0  02:35        0.02
  792                  JUNCTION     0.04     0.04    17.50     0  03:22        0.04
  793                  JUNCTION     0.07     0.07    16.69     0  03:25        0.07
  794                  JUNCTION     0.10     0.10    15.88     0  03:29        0.10
  795                  JUNCTION     0.11     0.11    14.92     0  03:31        0.11
  795C                 JUNCTION     0.03     0.03    17.03     0  00:38        0.03
  796                  JUNCTION     0.13     0.13    14.23     0  03:37        0.13
  797                  JUNCTION     0.12     0.13    12.59     0  04:37        0.13
  798                  JUNCTION     0.12     0.13    12.13     0  04:41        0.13
  799                  JUNCTION     0.14     0.15    11.54     0  04:45        0.15
  8                    JUNCTION     0.21     0.23    17.92     0  03:33        0.23
  80                   JUNCTION     0.06     0.06    19.21     0  05:27        0.06
  800                  JUNCTION     0.15     0.15    10.93     0  04:48        0.15
  801                  JUNCTION     0.15     0.15    10.45     0  04:51        0.15
  802                  JUNCTION     0.16     0.17     9.98     0  04:52        0.17
  802C                 JUNCTION     0.04     0.04    18.04     0  01:24        0.04
  803                  JUNCTION     0.12     0.12     9.30     0  05:01        0.12
  804                  JUNCTION     0.09     0.09    17.11     0  12:00        0.09
  805                  JUNCTION     0.05     0.05    17.92     0  12:00        0.05
  806                  JUNCTION     0.05     0.05    18.49     0  03:58        0.05
  807                  JUNCTION     0.05     0.05    19.55     0  03:51        0.05
  808                  JUNCTION     0.00     0.00    18.83     0  12:00        0.00
  809                  JUNCTION     0.16     0.16    16.65     0  01:03        0.16
  81                   JUNCTION     0.07     0.07    18.32     0  05:31        0.07
  810                  JUNCTION     0.16     0.16    15.76     0  01:11        0.16
  810A                 JUNCTION     0.03     0.03    15.99     0  00:06        0.03
  811                  JUNCTION     0.18     0.18    14.99     0  01:56        0.18
  812                  JUNCTION     0.04     0.04    20.03     0  00:28        0.04
  812A                 JUNCTION     0.03     0.03    21.96     0  01:14        0.03
  812B                 JUNCTION     0.04     0.05    20.83     0  00:14        0.05
  812C                 JUNCTION     0.04     0.05    20.38     0  00:19        0.05
  813                  JUNCTION     0.06     0.07    19.63     0  00:29        0.07
  814                  JUNCTION     0.06     0.06    19.13     0  00:37        0.06
  815                  JUNCTION     0.09     0.09    18.68     0  00:45        0.09
  816                  JUNCTION     0.63     0.63    18.91     0  01:57        0.63
  817                  JUNCTION     0.15     0.15    18.11     0  00:53        0.15
  818                  JUNCTION     0.16     0.16    17.51     0  00:54        0.16
  819                  JUNCTION     0.12     0.13    13.25     0  04:32        0.13
  82                   JUNCTION     0.08     0.08    17.43     0  05:44        0.08
  820                  JUNCTION     0.09     0.10    16.07     0  01:32        0.10
  821                  JUNCTION     7.97     8.32    15.15     0  04:14        8.32
  822                  JUNCTION     0.11     0.12    13.89     0  04:23        0.12
  823                  JUNCTION     0.16     0.16    16.15     0  02:00        0.16
  824                  JUNCTION     0.15     0.15    16.93     0  01:57        0.15
  825                  JUNCTION     0.12     0.12    17.57     0  01:56        0.12
  825B                 JUNCTION     0.10     0.11    17.68     0  00:04        0.11
  825C                 JUNCTION     0.09     0.10    17.93     0  00:02        0.09
  826                  JUNCTION     0.06     0.06    18.08     0  01:50        0.06
[...]
  832-832A                1.00   0.00  1.00  0.00  0.00  0.00  0.00  0.00  0.00  0.00
  832A-832B               1.00   0.00  0.00  0.00  0.00  0.00  0.00  1.00  0.00  0.00
  832B-832C               1.00   0.00  0.00  0.00  1.00  0.00  0.00  0.00  0.98  0.00
  832C-967                1.00   0.00  0.00  0.00  0.00  0.00  0.00  1.00  0.00  0.00
  833-834                 1.00   0.00  0.00  0.00  1.00  0.00  0.00  0.00  0.99  0.00
  834-835                 1.00   0.01  0.00  0.00  0.98  0.01  0.00  0.00  0.97  0.00
  835-835A                1.00   0.01  0.00  0.00  0.99  0.00  0.00  0.00  0.98  0.00
  835A-835B               1.00   0.02  0.00  0.00  0.00  0.00  0.00  0.98  0.00  0.00
  835B-968                1.00   0.02  0.00  0.00  0.00  0.00  0.00  0.98  0.00  0.00
  836-837                 1.00   0.00  0.00  0.00  0.99  0.01  0.00  0.00  0.00  0.00
  837-838                 1.00   0.00  0.00  0.00  0.00  0.00  0.00  1.00  0.00  0.00
  838-3037                1.00   0.00  0.00  0.00  0.00  1.00  0.00  0.00  0.00  0.00
  839-838                 1.00   0.00  0.00  0.00  0.99  0.01  0.00  0.00  0.99  0.00
  84-85                   1.00   0.00  0.00  0.00  1.00  0.00  0.00  0.00  0.99  0.00
  840-838                 1.00   0.00  0.00  0.00  1.00  0.00  0.00  0.00  0.00  0.00
  841-840                 1.00   0.00  0.00  0.00  0.00  0.00  0.00  1.00  0.00  0.00
  841A-841                1.00   0.00  0.00  0.00  0.99  0.01  0.00  0.00  1.00  0.00
  842-841A                1.00   0.00  0.00  0.00  0.00  1.00  0.00  0.00  0.00  0.00
  843-841                 1.00   0.00  0.00  0.00  0.00  0.00  0.00  1.00  0.00  0.00
  843A-843                1.00   0.00  0.00  0.00  0.00  0.00  0.00  1.00  0.00  0.00
  844-843A                1.00   0.00  0.00  0.00  0.99  0.01  0.00  0.00  0.99  0.00
  845-843                 1.00   0.00  0.00  0.00  1.00  0.00  0.00  0.00  0.98  0.00
  845A-845                1.00   0.00  0.00  0.00  0.00  0.00  0.00  1.00  0.00  0.00
  846-845A                1.00   0.00  0.00  0.00  0.99  0.01  0.00  0.00  0.00  0.00
  847-845                 1.00   0.00  0.00  0.00  1.00  0.00  0.00  0.00  1.00  0.00
  847A-847                1.00   0.00  0.00  0.00  0.00  0.00  0.00  1.00  0.00  0.00
  848-847A                1.00   0.00  0.00  0.00  1.00  0.00  0.00  0.00  0.99  0.00
  849-850                 1.00   0.00  0.00  0.00  1.00  0.00  0.00  0.00  0.99  0.00
  85-86                   1.00   0.00  0.00  0.00  1.00  0.00  0.00  0.00  0.97  0.00
  850-851                 1.00   0.00  0.00  0.00  1.00  0.00  0.00  0.00  0.99  0.00
  851-852                 1.00   0.00  0.00  0.00  1.00  0.00  0.00  0.00  0.97  0.00
  852-853                 1.00   0.00  0.00  0.00  0.00  0.00  0.00  1.00  0.00  0.00
  853-853A                1.00   0.00  0.00  0.00  1.00  0.00  0.00  0.00  0.95  0.00
  853A-861                1.00   0.00  0.00  0.00  1.00  0.00  0.00  0.00  0.99  0.00
  854-850                 1.00   0.00  0.00  0.00  0.00  0.00  0.00  1.00  0.00  0.00
  854-855                 1.00   0.00  0.00  0.00  1.00  0.00  0.00  0.00  0.99  0.00
  855-856                 1.00   0.00  0.00  0.00  1.00  0.00  0.00  0.00  1.00  0.00
  856-860                 1.00   0.00  0.00  0.00  1.00  0.00  0.00  0.00  0.99  0.00
  857-851                 1.00   0.00  0.00  0.00  0.00  0.00  0.00  1.00  0.00  0.00
  858-857                 1.00   0.00  0.00  0.00  1.00  0.00  0.00  0.00  0.00  0.00
  859-858                 1.00   0.00  0.00  0.00  1.00  0.00  0.00  0.00  0.99  0.00
  86-89                   1.00   0.00  0.00  0.00  1.00  0.00  0.00  0.00  1.00  0.00
  860-861                 1.00   0.00  0.00  0.00  0.00  0.00  0.00  1.00  0.00  0.00
  861-864                 1.00   0.00  0.00  0.00  0.00  0.00  0.00  1.00  0.00  0.00
  862-861                 1.00   0.00  0.00  0.00  0.00  0.00  0.00  1.00  0.00  0.00
  863-862                 1.00   0.00  0.00  0.00  0.99  0.01  0.00  0.00  0.99  0.00
  864-865                 1.00   0.00  0.00  0.00  0.99  0.01  0.00  0.00  0.79  0.00
  865-866                 1.00   0.00  0.01  0.00  0.99  0.00  0.00  0.00  0.99  0.00
  866-3044                1.00   0.00  0.00  0.00  0.00  1.00  0.00  0.00  0.00  0.00
  867-877                 1.00   0.01  0.00  0.00  0.99  0.00  0.00  0.00  0.00  0.00
  868-867                 1.00   0.00  0.00  0.00  1.00  0.00  0.00  0.00  0.00  0.00
  869-868                 1.00   0.00  0.00  0.00  0.99  0.01  0.00  0.00  0.99  0.00
  87-88                   1.00   0.00  0.00  0.00  1.00  0.00  0.00  0.00  0.98  0.00
  870-869                 1.00   0.00  0.00  0.00  0.01  0.99  0.00  0.00  0.00  0.00
  871-871A                1.00   0.00  0.00  0.00  0.99  0.01  0.00  0.00  0.99  0.00
  871A-868                1.00   0.00  0.00  0.00  0.00  0.00  0.00  1.00  0.00  0.00
  872-869                 1.00   0.00  0.00  0.00  0.98  0.02  0.00  0.00  0.00  0.00
  873-870                 1.00   0.00  0.00  0.00  0.99  0.01  0.00  0.00  0.99  0.00
  874-870                 1.00   0.00  0.00  0.00  1.00  0.00  0.00  0.00  0.99  0.00
  876-874                 1.00   0.00  0.00  0.00  1.00  0.00  0.00  0.00  0.99  0.00
  877-878                 1.00   0.02  0.00  0.00  0.98  0.00  0.00  0.00  0.00  0.00
  878-3048                1.00   0.06  0.00  0.00  0.94  0.00  0.00  0.00  0.00  0.00
  879-880                 1.00   0.00  0.00  0.00  1.00  0.00  0.00  0.00  0.99  0.00
  88-89                   1.00   0.00  0.00  0.00  0.97  0.00  0.00  0.03  0.96  0.00
  880-881                 1.00   0.00  0.00  0.00  1.00  0.00  0.00  0.00  1.00  0.00
  881-882                 1.00   0.00  0.00  0.00  1.00  0.00  0.00  0.00  0.98  0.00
  882-884                 1.00   0.00  0.00  0.00  0.00  0.00  0.00  1.00  0.00  0.00
  883-882                 1.00   0.00  0.00  0.00  0.00  0.00  0.00  1.00  0.00  0.00
  884-885                 1.00   0.00  0.00  0.00  0.00  0.00  0.00  1.00  0.00  0.00
  885-894                 1.00   0.00  0.00  0.00  1.00  0.00  0.00  0.00  0.98  0.00
  886-884                 1.00   0.00  0.00  0.00  0.00  0.00  0.00  1.00  0.00  0.00
  887-886                 1.00   0.00  0.00  0.00  0.00  0.00  0.00  1.00  0.00  0.00
  888-886                 1.00   0.00  0.00  0.00  1.00  0.00  0.00  0.00  0.98  0.00
  888-889                 1.00   0.00  0.00  0.00  1.00  0.00  0.00  0.00  0.99  0.00
  889-890                 1.00   0.00  0.00  0.00  1.00  0.00  0.00  0.00  1.00  0.00
  89-92                   1.00   0.02  0.00  0.00  0.00  0.00  0.00  0.98  0.00  0.00
  890-891                 1.00   0.00  0.00  0.00  1.00  0.00  0.00  0.00  0.98  0.00
  891-892                 1.00   0.00  0.00  0.00  1.00  0.00  0.00  0.00  1.00  0.00
  892-893                 1.00   0.00  0.00  0.00  1.00  0.00  0.00  0.00  0.97  0.00
  893-917                 1.00   0.00  0.00  0.00  0.00  0.00  0.00  1.00  0.00  0.00
  894-898                 1.00   0.00  0.00  0.00  0.00  0.00  0.00  1.00  0.00  0.00
  895-894                 1.00   0.00  0.00  0.00  0.00  0.00  0.00  1.00  0.00  0.00
  896-895                 1.00   0.00  0.00  0.00  1.00  0.00  0.00  0.00  0.98  0.00
  897-896                 1.00   0.00  0.00  0.00  1.00  0.00  0.00  0.00  0.99  0.00
  897-901                 1.00   0.00  0.00  0.00  1.00  0.00  0.00  0.00  0.99  0.00
  898-905                 1.00   0.00  0.00  0.00  1.00  0.00  0.00  0.00  0.94  0.00
  899-898                 1.00   0.00  0.00  0.00  0.92  0.01  0.00  0.07  0.00  0.00
  899-900                 1.00   0.00  0.00  0.00  1.00  0.00  0.00  0.00  0.99  0.00
  9-10                    1.00   0.00  0.00  0.00  1.00  0.00  0.00  0.00  0.85  0.00
  90-91                   1.00   0.00  0.00  0.00  1.00  0.00  0.00  0.00  0.99  0.00
  900-903                 1.00   0.00  0.00  0.00  1.00  0.00  0.00  0.00  1.00  0.00
  901-902                 1.00   0.00  0.00  0.00  1.00  0.00  0.00  0.00  0.98  0.00
  902-908                 1.00   0.00  0.00  0.00  0.00  0.00  0.00  1.00  0.00  0.00
  903-904A                1.00   0.00  0.00  0.00  1.00  0.00  0.00  0.00  0.98  0.00
  904-903                 1.00   0.00  0.00  0.00  0.00  0.00  0.00  1.00  0.00  0.00
  904A-909                1.00   0.00  0.00  0.00  0.00  0.00  0.00  1.00  0.00  0.00
  905-906                 1.00   0.00  0.00  0.00  1.00  0.00  0.00  0.00  0.98  0.00
  906-910                 1.00   0.00  0.00  0.00  0.00  0.00  0.00  1.00  0.00  0.00
  908-913A                1.00   0.00  0.00  0.00  0.96  0.00  0.00  0.04  0.96  0.00
  909-912                 1.00   0.00  0.00  0.00  0.00  0.00  0.00  1.00  0.00  0.00
  91-92                   1.00   0.00  0.00  0.00  1.00  0.00  0.00  0.00  0.96  0.00
  910-911                 1.00   0.00  0.00  0.00  0.97  0.03  0.00  0.00  0.94  0.00
  911-347                 1.00   0.00  0.00  0.00  0.00  0.00  0.00  1.00  0.00  0.00
  912-910                 1.00   0.00  0.00  0.00  0.00  0.00  0.00  1.00  0.00  0.00
  912A-912                1.00   0.00  0.07  0.00  0.93  0.00  0.00  0.00  0.93  0.00
  913-914                 1.00   0.00  0.00  0.00  1.00  0.00  0.00  0.00  0.06  0.00
  913A-912A               1.00   0.00  0.00  0.00  1.00  0.00  0.00  0.00  0.03  0.00
  914-913A                1.00   0.00  0.00  0.00  1.00  0.00  0.00  0.00  0.05  0.00
  917-914                 1.00   0.00  0.00  0.00  1.00  0.00  0.00  0.00  0.98  0.00
  918-917                 1.00   0.00  0.00  0.00  1.00  0.00  0.00  0.00  1.00  0.00
  918A-918                1.00   0.00  1.00  0.00  0.00  0.00  0.00  0.00  0.00  0.00
  918B-918A               1.00   1.00  0.00  0.00  0.00  0.00  0.00  0.00  0.00  0.00
  918C-918B               1.00   1.00  0.00  0.00  0.00  0.00  0.00  0.00  0.00  0.00
  919-920A                1.00   0.00  0.00  0.00  0.00  0.00  0.00  1.00  0.00  0.00
  92-93                   1.00   0.00  0.00  0.00  0.00  0.00  0.00  1.00  0.00  0.00
  920-847                 1.00   0.00  0.00  0.00  1.00  0.00  0.00  0.00  0.99  0.00
  920A-920                1.00   0.00  0.00  0.00  0.00  0.00  0.00  1.00  0.00  0.00
  921-920                 1.00   0.00  0.00  0.00  0.00  0.00  0.00  1.00  0.00  0.00
  922-923                 1.00   0.00  0.00  0.00  1.00  0.00  0.00  0.00  0.99  0.00
  923-924                 1.00   0.00  0.00  0.00  1.00  0.00  0.00  0.00  0.98  0.00
  924-925                 1.00   0.00  0.00  0.00  0.01  0.99  0.00  0.00  0.00  0.00
  925-840                 1.00   0.00  0.00  0.00  0.00  0.00  0.00  1.00  0.00  0.00
  926-927                 1.00   0.00  0.00  0.00  0.00  0.00  0.00  1.00  0.00  0.00
  927-928                 1.00   0.00  0.00  0.00  0.00  0.00  0.00  1.00  0.00  0.00
  928-929                 1.00   0.00  0.00  0.00  0.01  0.99  0.00  0.00  0.00  0.00
  929-821                 1.00   0.00  0.00  0.00  1.00  0.00  0.00  0.00  1.00  0.00
  93-94                   1.00   0.00  0.00  0.00  1.00  0.00  0.00  0.00  0.91  0.00
  930-929                 1.00   1.00  0.00  0.00  0.00  0.00  0.00  0.00  0.00  0.00
  931-930                 1.00   1.00  0.00  0.00  0.00  0.00  0.00  0.00  0.00  0.00
  932-933                 1.00   0.00  0.00  0.00  1.00  0.00  0.00  0.00  0.99  0.00
  933-934                 1.00   0.00  0.00  0.00  0.99  0.01  0.00  0.00  0.98  0.00
  934-19                  1.00   0.00  0.00  0.00  1.00  0.00  0.00  0.00  1.00  0.00
  935-936                 1.00   1.00  0.00  0.00  0.00  0.00  0.00  0.00  0.00  0.00
  936-937                 1.00   1.00  0.00  0.00  0.00  0.00  0.00  0.00  0.00  0.00
  936A-936                1.00   0.00  0.00  0.00  1.00  0.00  0.00  0.00  0.00  0.00
  936B-936A               1.00   0.00  0.00  0.00  1.00  0.00  0.00  0.00  0.00  0.00
  938-3009                1.00   1.00  0.00  0.00  0.00  0.00  0.00  0.00  0.00  0.00
  939-940                 1.00   0.00  0.00  0.00  1.00  0.00  0.00  0.00  0.00  0.00
  94-95                   1.00   0.00  0.00  0.00  1.00  0.00  0.00  0.00  1.00  0.00
  940-3033                1.00   0.00  0.00  0.00  0.00  1.00  0.00  0.00  1.00  0.00
  941-940                 1.00   0.00  0.00  0.00  0.00  1.00  0.00  0.00  0.00  0.00
  942-941                 1.00   0.00  0.00  0.00  1.00  0.00  0.00  0.00  1.00  0.00
  943-942                 1.00   0.00  0.00  0.00  1.00  0.00  0.00  0.00  0.99  0.00
  944-944A                1.00   0.00  0.01  0.00  0.00  0.99  0.00  0.00  0.02  0.00
  944AP                   1.00   0.00  0.00  0.00  0.00  1.00  0.00  0.00  0.01  0.00
  945-945A                1.00   0.00  0.00  0.00  0.99  0.01  0.00  0.00  0.98  0.00
  945A-944                1.00   0.00  0.00  0.00  0.00  0.99  0.00  0.00  0.00  0.00
  946-945                 1.00   0.00  0.00  0.00  0.99  0.01  0.00  0.00  0.94  0.00
  947-946                 1.00   0.00  0.00  0.00  1.00  0.00  0.00  0.00  0.01  0.00
  948-963                 1.00   1.00  0.00  0.00  0.00  0.00  0.00  0.00  0.00  0.00
  949-950                 1.00   1.00  0.00  0.00  0.00  0.00  0.00  0.00  0.00  0.00
  95-14                   1.00   0.00  0.00  0.00  0.00  0.00  0.00  1.00  0.00  0.00
  950-948                 1.00   1.00  0.00  0.00  0.00  0.00  0.00  0.00  0.00  0.00
  951-953                 1.00   1.00  0.00  0.00  0.00  0.00  0.00  0.00  0.00  0.00
  952-951                 1.00   1.00  0.00  0.00  0.00  0.00  0.00  0.00  0.00  0.00
  953-954                 1.00   1.00  0.00  0.00  0.00  0.00  0.00  0.00  0.00  0.00
  954-956                 1.00   1.00  0.00  0.00  0.00  0.00  0.00  0.00  0.00  0.00
  955-954                 1.00   1.00  0.00  0.00  0.00  0.00  0.00  0.00  0.00  0.00
  956-958                 1.00   1.00  0.00  0.00  0.00  0.00  0.00  0.00  0.00  0.00
  957-958                 1.00   1.00  0.00  0.00  0.00  0.00  0.00  0.00  0.00  0.00
  958-959                 1.00   1.00  0.00  0.00  0.00  0.00  0.00  0.00  0.00  0.00
  959-981                 1.00   0.00  0.00  0.00  0.00  0.00  0.00  1.00  0.00  0.00
  96-97                   1.00   0.00  0.00  0.00  1.00  0.00  0.00  0.00  0.98  0.00
  960-959                 1.00   0.00  0.00  0.00  0.00  0.00  0.00  1.00  0.00  0.00
  961-960                 1.00   1.00  0.00  0.00  0.00  0.00  0.00  0.00  0.00  0.00
  962-960                 1.00   1.00  0.00  0.00  0.00  0.00  0.00  0.00  0.00  0.00
  963-962                 1.00   1.00  0.00  0.00  0.00  0.00  0.00  0.00  0.00  0.00
  964-963                 1.00   1.00  0.00  0.00  0.00  0.00  0.00  0.00  0.00  0.00
  965-966                 1.00   0.00  0.00  0.00  0.00  0.00  0.00  1.00  0.00  0.00
  966-967                 1.00   0.00  0.00  0.00  1.00  0.00  0.00  0.00  0.99  0.00
  967-968                 1.00   0.00  0.00  0.00  0.00  0.00  0.00  1.00  0.00  0.00
  968-22                  1.00   0.00  0.00  0.00  0.00  0.00  0.00  1.00  0.00  0.00
  969-970                 1.00   0.00  0.00  0.00  0.00  1.00  0.00  0.00  0.99  0.00
  97-80                   1.00   0.00  0.00  0.00  0.00  0.00  0.00  1.00  0.00  0.00
  970-972                 1.00   0.00  0.00  0.00  0.00  1.00  0.00  0.00  0.99  0.00
  971-970                 1.00   0.00  0.00  0.00  1.00  0.00  0.00  0.00  1.00  0.00
  972-973                 1.00   0.00  0.00  0.00  0.99  0.01  0.00  0.00  0.98  0.00
  973-974A                1.00   0.00  0.00  0.00  0.00  0.00  0.00  1.00  0.00  0.00
  974-479                 1.00   0.00  0.00  0.00  1.00  0.00  0.00  0.00  0.99  0.00
  974A-3008               1.00   0.00  0.00  0.00  0.00  1.00  0.00  0.00  0.00  0.00
  975-393                 1.00   0.00  0.00  0.00  1.00  0.00  0.00  0.00  1.00  0.00
  975A-974A               1.00   0.01  0.99  0.00  0.00  0.00  0.00  0.00  0.00  0.00
  976-256                 1.00   0.00  0.00  0.00  1.00  0.00  0.00  0.00  1.00  0.00
  976A-975A               1.00   0.00  0.00  0.00  1.00  0.00  0.00  0.00  0.00  0.00
  977-976A                1.00   0.00  0.00  0.00  1.00  0.00  0.00  0.00  0.00  0.00
  978-531                 1.00   0.00  0.00  0.00  1.00  0.00  0.00  0.00  0.02  0.00
  979-1036                1.00   1.00  0.00  0.00  0.00  0.00  0.00  0.00  0.00  0.00
  98-99                   1.00   0.00  0.00  0.00  1.00  0.00  0.00  0.00  1.00  0.00
  982-982A                1.00   0.00  0.00  0.00  0.00  1.00  0.00  0.00  0.00  0.00
  982AP                   1.00   0.00  0.00  0.00  0.00  1.00  0.00  0.00  0.00  0.00
  983-982                 1.00   0.00  0.00  0.00  0.00  1.00  0.00  0.00  1.00  0.00
  984-983                 1.00   0.00  0.00  0.00  0.00  0.00  0.00  1.00  0.00  0.00
  985-1                   1.00   0.00  0.00  0.00  1.00  0.00  0.00  0.00  1.00  0.00
  986-985                 1.00   0.00  0.00  0.00  0.00  0.00  0.00  1.00  0.00  0.00
  987-986                 1.00   0.00  0.00  0.00  0.00  0.00  0.00  1.00  0.00  0.00
  988-987                 1.00   0.00  0.00  0.00  0.00  0.00  0.00  1.00  0.00  0.00
  989-985                 1.00   0.00  0.00  0.00  0.00  0.00  0.00  1.00  0.00  0.00
  99-100                  1.00   0.00  0.00  0.00  1.00  0.00  0.00  0.00  0.99  0.00
  990-989                 1.00   0.00  0.00  0.00  0.00  0.00  0.00  1.00  0.00  0.00
  991-990                 1.00   0.00  0.00  0.00  0.00  0.00  0.00  1.00  0.00  0.00
  992-987                 1.00   0.00  0.00  0.00  0.00  0.00  0.00  1.00  0.00  0.00
  993-994                 1.00   0.00  0.00  0.00  1.00  0.00  0.00  0.00  1.00  0.00
  994-995                 1.00   0.00  0.00  0.00  1.00  0.00  0.00  0.00  0.99  0.00
  995-996                 1.00   0.00  0.00  0.00  1.00  0.00  0.00  0.00  0.99  0.00
  996-997                 1.00   0.00  0.00  0.00  0.00  1.00  0.00  0.00  0.00  0.00
  997-998                 1.00   0.00  0.00  0.00  0.00  0.97  0.00  0.03  0.97  0.00
  998-944A                1.00   0.00  0.00  0.00  0.98  0.02  0.00  0.00  0.00  0.00
  999-1002                1.00   0.00  0.00  0.00  0.99  0.01  0.00  0.00  0.00  0.00
  NEW                     1.00   0.00  0.00  0.00  0.00  0.99  0.00  0.00  0.98  0.00
  PIPES                   1.00   1.00  0.00  0.00  0.00  0.00  0.00  0.00  0.00  0.00
  
  
  *************************
  Conduit Surcharge Summary
  *************************
  
  ----------------------------------------------------------------------------
                                                           Hours        Hours 
                         --------- Hours Full --------   Above Full   Capacity
  Conduit                Both Ends  Upstream  Dnstream   Normal Flow   Limited
  ----------------------------------------------------------------------------
  1022-18                     0.01      0.01     11.69      0.01         0.01
  1023-142                   10.83     10.83     11.37      0.01         0.01
  253A-253                   11.33     11.33     11.41      0.01         0.01
  253B-253A                   0.01      0.01     11.33      0.01         0.01
  4-5                         0.01      0.01     11.22      0.01         0.01
  53-5                       10.26     10.26     10.95      0.01         0.01
  726-700                     0.01      0.01     11.03      0.01         0.01
  727-700                     0.01      0.01     11.10      0.01         0.01
  830A-25                     0.01      0.01     11.69      0.01         0.01
  913A-912A                   0.01      0.01     11.06      0.01         0.01
  929-821                     0.01      0.01     11.75      0.01         0.01
  934-19                      0.01      0.01     11.55      0.01         0.01
  936A-936                    4.66      9.81      5.62      0.03         0.01
  936B-936A                   9.81     11.24      9.81      0.75         0.01
  976A-975A                   7.86     10.71      7.86      0.01         0.01
  977-976A                   10.71     10.71     10.71      0.01         0.01
  

  Analysis begun on:  Wed Jun 24 00:09:41 2026
  Analysis ended on:  Wed Jun 24 00:10:40 2026
  Total elapsed time: 00:00:59