
  EPA STORM WATER MANAGEMENT MODEL - VERSION 5.2 (Build 5.2.4)
  ------------------------------------------------------------

  WARNING 04: minimum elevation drop used for Conduit 1103
  WARNING 04: minimum elevation drop used for Conduit TO_OFALL
  
  ****************
  Analysis Options
  ****************
  Flow Units ............... GPM
  Process Models:
    Rainfall/Runoff ........ NO
    RDII ................... NO
    Snowmelt ............... NO
    Groundwater ............ NO
    Flow Routing ........... YES
    Ponding Allowed ........ YES
    Water Quality .......... NO
  Flow Routing Method ...... DYNWAVE
  Surcharge Method ......... EXTRAN
  Starting Date ............ 01/01/2002 00:00:00
  Ending Date .............. 01/03/2002 00:00:00
  Antecedent Dry Days ...... 5.0
  Report Time Step ......... 00:05:00
  Routing Time Step ........ 15.00 sec
  Variable Time Step ....... YES
  Maximum Trials ........... 8
  Number of Threads ........ 1
  Head Tolerance ........... 0.005000 ft
  
  
  **************************        Volume        Volume
  Flow Routing Continuity        acre-feet      10^6 gal
  **************************     ---------     ---------
  Dry Weather Inflow .......        15.449         5.034
  Wet Weather Inflow .......         0.000         0.000
  Groundwater Inflow .......         0.000         0.000
  RDII Inflow ..............         0.000         0.000
  External Inflow ..........         2.839         0.925
  External Outflow .........        17.986         5.861
  Flooding Loss ............         0.561         0.183
  Evaporation Loss .........         0.000         0.000
  Exfiltration Loss ........         0.000         0.000
  Initial Stored Volume ....         0.000         0.000
  Final Stored Volume ......         0.760         0.248
  Continuity Error (%) .....        -5.576
  
  
  *************************
  Highest Continuity Errors
  *************************
  Node 1555 (-5.95%)
  Node 1556 (-3.42%)
  Node LS7 (2.18%)
  Node 545 (1.24%)
  Node 1264 (-1.14%)
  
  
  ***************************
  Time-Step Critical Elements
  ***************************
  Link NON_MOD_SMALL_SEGMENT (98.89%)
  Link 911 (1.11%)
  
  
  ********************************
  Highest Flow Instability Indexes
  ********************************
  Link 249 (42)
  Link 248 (33)
  Link 708 (18)
  Link TO_OFALL (14)
  Link 530 (13)
  
  
  *********************************
  Most Frequent Nonconverging Nodes
  *********************************
  Node OFALL (7.66%)
  Node LS4 (5.39%)
  Node LS1 (2.20%)
  Node OUTFALL_JUNCTION (0.20%)
  Node LS12 (0.08%)
  
  
  *************************
  Routing Time Step Summary
  *************************
  Minimum Time Step           :     0.96 sec
  Average Time Step           :     2.08 sec
  Maximum Time Step           :    15.00 sec
  % of Time in Steady State   :     0.00
  Average Iterations per Step :     3.21
  % of Steps Not Converging   :     7.66
  Time Step Frequencies       :
     15.000 -  2.192 sec      :    29.43 %
      2.192 -  0.320 sec      :    70.57 %
      0.320 -  0.047 sec      :     0.00 %
      0.047 -  0.007 sec      :     0.00 %
      0.007 -  0.001 sec      :     0.00 %
  
  
  ******************
  Node Depth Summary
  ******************
  
  ---------------------------------------------------------------------------------
                                 Average  Maximum  Maximum  Time of Max    Reported
                                   Depth    Depth      HGL   Occurrence   Max Depth
  Node                 Type         Feet     Feet     Feet  days hr:min        Feet
  ---------------------------------------------------------------------------------
  1004                 JUNCTION     0.20     0.29  1016.14     1  08:00        0.29
  1005                 JUNCTION     0.18     0.27  1016.44     1  08:00        0.27
  1006                 JUNCTION     0.18     0.28  1016.87     1  08:00        0.28
  1013                 JUNCTION     0.16     0.24  1018.63     1  08:00        0.24
  1014                 JUNCTION     0.18     0.27  1017.65     1  08:00        0.27
  1015                 JUNCTION     0.17     0.25  1018.13     1  08:00        0.25
  1016                 JUNCTION     0.17     0.26  1019.37     1  08:00        0.26
  1017                 JUNCTION     0.15     0.23  1020.30     1  08:00        0.23
  1019                 JUNCTION     0.14     0.21  1015.46     1  08:00        0.21
  1078                 JUNCTION     0.06     0.09  1040.53     1  08:02        0.09
  1092                 JUNCTION     0.07     0.10  1015.59     1  08:06        0.10
  1099                 JUNCTION     0.23     0.36  1007.16     1  08:00        0.36
  11                   JUNCTION     0.70     1.04  1012.17     1  09:14        1.04
  1101                 JUNCTION     0.28     0.45  1009.06     1  08:00        0.45
  1102                 JUNCTION     0.37     0.60  1009.85     1  08:00        0.60
  1105                 JUNCTION     0.34     0.57  1010.55     1  08:00        0.57
  1106                 JUNCTION     0.30     0.51  1010.60     1  08:00        0.51
  111                  JUNCTION     0.00     0.00  1043.15     0  00:00        0.00
  1111                 JUNCTION     0.35     0.58  1011.48     1  08:00        0.58
  1112                 JUNCTION     0.14     0.23  1011.51     1  08:00        0.23
  1113                 JUNCTION     0.13     0.19  1011.61     1  08:00        0.19
  112                  JUNCTION     0.00     0.00  1042.64     0  00:00        0.00
  1122                 JUNCTION     0.11     0.16  1012.10     1  08:00        0.16
  1124                 JUNCTION     0.10     0.15  1012.92     1  08:00        0.15
  1127                 JUNCTION     0.08     0.11  1014.09     1  08:00        0.11
  113                  JUNCTION     0.03     0.04  1041.96     1  08:00        0.04
  1133                 JUNCTION     0.03     0.04  1015.47     1  08:00        0.04
  114                  JUNCTION     0.07     0.10  1041.47     1  08:00        0.10
  1145                 JUNCTION     0.03     0.04  1015.73     1  08:00        0.04
  1146                 JUNCTION     0.03     0.04  1016.99     1  08:00        0.04
  1147                 JUNCTION     0.02     0.03  1017.97     1  08:00        0.03
  1148                 JUNCTION     0.02     0.03  1018.08     1  07:46        0.03
  115                  JUNCTION     0.06     0.09  1041.09     1  08:00        0.09
  1152                 JUNCTION     0.08     0.12  1027.72     1  08:00        0.12
  1153                 JUNCTION     0.00     0.00   989.91     0  00:00        0.00
  1155                 JUNCTION     0.00     0.00   990.59     0  00:00        0.00
  1156                 JUNCTION     0.00     0.00   992.61     0  00:00        0.00
  1157                 JUNCTION     0.00     0.00   995.25     0  00:00        0.00
  1158                 JUNCTION     0.00     0.00   999.44     0  00:00        0.00
  1159                 JUNCTION     0.00     0.00   999.98     0  00:00        0.00
  116                  JUNCTION     0.06     0.09  1040.82     1  08:00        0.09
  1160                 JUNCTION     0.00     0.00  1000.13     0  00:00        0.00
  1161                 JUNCTION     0.00     0.00  1003.44     0  00:00        0.00
  1162                 JUNCTION     0.43     0.68  1008.41     1  08:22        0.68
  1163                 JUNCTION     0.55     0.86  1009.11     1  08:21        0.86
  1164                 JUNCTION     0.53     0.86  1009.63     1  08:20        0.86
  1165                 JUNCTION     0.52     0.84  1010.16     1  08:18        0.84
  1166                 JUNCTION     0.53     0.85  1010.72     1  08:17        0.85
  1167                 JUNCTION     0.53     0.85  1011.25     1  08:15        0.85
  1168                 JUNCTION     0.50     0.80  1011.84     1  08:14        0.80
  1169                 JUNCTION     0.12     0.18  1013.93     1  08:00        0.18
  117                  JUNCTION     0.07     0.10  1040.64     1  08:00        0.10
  1170                 JUNCTION     0.07     0.11  1013.43     1  08:02        0.11
  1171                 JUNCTION     0.10     0.15  1012.77     1  08:02        0.15
  1172                 JUNCTION     0.55     0.88  1012.43     1  08:12        0.88
  1173                 JUNCTION     0.52     0.84  1012.56     1  08:12        0.84
  1174                 JUNCTION     0.51     0.82  1012.78     1  08:12        0.82
  1175                 JUNCTION     0.51     0.82  1013.19     1  08:11        0.82
  1176                 JUNCTION     0.52     0.83  1013.63     1  08:10        0.83
  1177                 JUNCTION     0.50     0.80  1013.91     1  08:09        0.80
  1178                 JUNCTION     0.36     0.57  1014.20     1  08:08        0.57
  1179                 JUNCTION     0.50     0.78  1014.99     1  08:09        0.78
  118                  JUNCTION     0.06     0.09  1040.36     1  08:00        0.09
  1180                 JUNCTION     0.50     0.79  1015.60     1  08:07        0.79
  1181                 JUNCTION     0.50     0.79  1016.19     1  08:06        0.79
  1182                 JUNCTION     0.50     0.80  1016.70     1  08:04        0.80
  1184                 JUNCTION     0.11     0.22  1036.12     1  07:00        0.21
  1185                 JUNCTION     0.22     0.39  1034.38     1  07:55        0.39
  1186                 JUNCTION     0.23     0.37  1033.43     1  07:56        0.37
  1187                 JUNCTION     0.20     0.31  1032.80     1  07:59        0.31
  1188                 JUNCTION     0.21     0.33  1031.78     1  08:01        0.33
  1189                 JUNCTION     0.22     0.34  1030.58     1  08:02        0.34
  119                  JUNCTION     0.06     0.09  1040.14     1  08:00        0.09
  1190                 JUNCTION     0.18     0.27  1028.13     1  08:04        0.27
  1191                 JUNCTION     0.21     0.33  1029.57     1  08:02        0.33
  1192                 JUNCTION     0.22     0.35  1029.01     1  08:03        0.35
  1193                 JUNCTION     0.11     0.16  1025.93     1  08:04        0.16
  1196                 JUNCTION     0.47     0.75  1017.32     1  08:03        0.75
  1197                 JUNCTION     0.44     0.70  1017.88     1  08:02        0.70
  1198                 JUNCTION     0.24     0.42  1024.41     1  08:01        0.41
  120                  JUNCTION     0.06     0.09  1039.87     1  08:00        0.09
  121                  JUNCTION     0.07     0.10  1039.07     1  08:00        0.10
  1216                 JUNCTION     0.44     0.67   993.38     1  08:00        0.67
  1217                 JUNCTION     0.55     0.87   993.80     1  08:00        0.87
  1218                 JUNCTION     0.36     0.57   994.35     1  08:00        0.57
  122                  JUNCTION     0.06     0.09  1038.61     1  08:02        0.09
  123                  JUNCTION     0.06     0.10  1035.68     1  08:00        0.10
  124                  JUNCTION     0.06     0.09  1038.88     1  08:01        0.09
  125                  JUNCTION     0.07     0.10  1038.27     1  08:04        0.10
  126                  JUNCTION     0.11     0.16  1037.88     1  08:06        0.16
  1261                 JUNCTION     0.43     0.67  1010.53     1  08:09        0.67
  1262                 JUNCTION     0.45     0.69  1010.10     1  08:09        0.69
  1263                 JUNCTION     0.40     0.61  1009.85     1  08:10        0.61
  1264                 JUNCTION     0.49     0.77  1009.13     1  07:44        0.69
  127                  JUNCTION     0.09     0.12  1036.95     1  08:13        0.12
  1285                 JUNCTION     0.48     0.75   994.88     1  08:00        0.75
  1286                 JUNCTION     0.37     0.57   995.47     1  08:01        0.57
  1288                 JUNCTION     0.41     0.65   996.17     1  08:00        0.65
  129                  JUNCTION     0.06     0.09  1036.69     1  08:13        0.09
  1294                 JUNCTION     0.17     0.26  1003.56     1  08:00        0.26
  1297                 JUNCTION     0.12     0.18  1000.02     1  08:00        0.18
  1299                 JUNCTION     0.36     0.57   996.63     1  08:00        0.57
  130                  JUNCTION     0.06     0.09  1036.35     1  08:16        0.09
  1300                 JUNCTION     0.18     0.27   996.88     1  08:00        0.27
  1301                 JUNCTION     0.24     0.36   997.37     1  08:00        0.36
  1303                 JUNCTION     0.19     0.29   997.83     1  08:00        0.29
  1304                 JUNCTION     0.12     0.18  1002.27     1  08:00        0.18
  131                  JUNCTION     0.07     0.10  1036.02     1  08:17        0.10
  132                  JUNCTION     0.07     0.10  1035.41     1  08:00        0.10
  1329                 JUNCTION     0.41     0.63  1010.90     1  08:08        0.63
  133                  JUNCTION     0.07     0.10  1034.11     1  08:00        0.10
  1330                 JUNCTION     0.41     0.63  1011.24     1  08:07        0.63
  1331                 JUNCTION     0.64     0.91  1011.65     1  08:06        0.91
  1332                 JUNCTION     0.49     0.74  1011.51     1  08:06        0.73
  1337                 JUNCTION     0.44     0.70  1011.81     1  08:05        0.70
  1338                 JUNCTION     0.34     0.56  1011.89     1  08:05        0.56
  1339                 JUNCTION     0.24     0.36  1016.96     1  08:05        0.36
  134                  JUNCTION     0.09     0.14  1034.91     1  08:00        0.14
  1343                 JUNCTION     0.45     0.69  1018.19     1  08:03        0.69
  1347                 JUNCTION     0.38     0.58  1017.69     1  08:04        0.58
  1348                 JUNCTION     0.41     0.65  1018.65     1  08:03        0.64
  1372                 JUNCTION     0.11     0.17  1005.32     1  08:00        0.17
  1378                 JUNCTION     0.21     0.32  1004.01     1  08:00        0.32
  1379                 JUNCTION     0.12     0.18  1006.23     1  07:47        0.18
  14                   JUNCTION     0.00     0.00  1032.32     0  00:00        0.00
  1400                 JUNCTION     0.35     0.54  1039.02     1  07:52        0.54
  1401                 JUNCTION     0.32     0.50  1040.00     1  07:52        0.50
  1448                 JUNCTION     0.26     0.40  1015.22     1  08:00        0.40
  1449                 JUNCTION     0.30     0.46  1015.80     1  07:58        0.46
  1453                 JUNCTION     0.30     0.46  1016.13     1  07:57        0.46
  1477                 JUNCTION     0.26     0.39  1017.14     1  07:54        0.39
  1478                 JUNCTION     0.27     0.42  1016.55     1  07:55        0.42
  1480                 JUNCTION     0.25     0.38  1017.85     1  07:52        0.38
  15                   JUNCTION     0.00     0.00  1031.35     0  00:00        0.00
  1500                 JUNCTION     0.17     0.26  1019.39     1  08:03        0.26
  1505                 JUNCTION     0.15     0.22  1024.65     1  08:00        0.22
  1508                 JUNCTION     0.15     0.22  1025.18     1  08:00        0.22
  1515                 JUNCTION     0.15     0.23  1025.87     1  08:00        0.23
  1519                 JUNCTION     0.06     0.09  1028.65     1  08:00        0.09
  1520                 JUNCTION     0.10     0.15  1026.82     1  08:00        0.15
  1524                 JUNCTION     0.05     0.08  1008.38     1  08:02        0.08
  1535                 JUNCTION     0.63     0.92  1020.82     1  08:55        0.92
  1536                 JUNCTION     0.75     1.11  1020.28     1  08:58        1.11
  1537                 JUNCTION     0.76     1.16  1019.95     1  09:00        1.16
  1538                 JUNCTION     0.91     1.29  1019.70     1  09:01        1.29
  1539                 JUNCTION     0.67     0.99  1019.28     1  09:03        0.99
  1540                 JUNCTION     0.91     1.29  1018.95     1  09:00        1.29
  1541                 JUNCTION     0.78     1.11  1021.34     1  08:54        1.11
  1542                 JUNCTION     0.98     1.38  1021.65     1  08:53        1.38
  1543                 JUNCTION     0.95     1.38  1021.87     1  08:52        1.38
  1544                 JUNCTION     0.75     1.10  1023.24     1  08:39        1.10
  1545                 JUNCTION     0.68     0.99  1023.72     1  08:37        0.99
  1546                 JUNCTION     1.02     1.46  1022.09     1  08:50        1.46
  1547                 JUNCTION     0.83     1.27  1022.27     1  08:49        1.27
  1548                 JUNCTION     0.88     1.30  1022.52     1  08:46        1.30
  1549                 JUNCTION     0.71     1.05  1022.79     1  08:43        1.05
  1550                 JUNCTION     0.79     1.12  1024.04     1  08:35        1.12
  1551                 JUNCTION     0.96     1.35  1024.30     1  08:34        1.35
  1552                 JUNCTION     0.91     1.32  1024.46     1  08:33        1.32
  1553                 JUNCTION     0.68     1.01  1024.71     1  08:30        1.01
  1554                 JUNCTION     0.70     1.01  1025.08     1  08:27        1.01
  1555                 JUNCTION     0.56     0.84  1030.57     1  07:57        0.84
  1556                 JUNCTION     0.58     0.86  1029.87     1  07:59        0.86
  1557                 JUNCTION     0.51     0.76  1029.21     1  07:59        0.76
  1558                 JUNCTION     0.57     0.84  1028.41     1  08:09        0.84
  1559                 JUNCTION     0.54     0.78  1027.67     1  08:09        0.78
  1560                 JUNCTION     0.84     1.22  1027.21     1  08:20        1.22
  1561                 JUNCTION     0.77     1.15  1026.99     1  08:21        1.14
  1562                 JUNCTION     0.84     1.23  1026.79     1  08:22        1.23
  1563                 JUNCTION     1.00     1.37  1026.65     1  08:23        1.37
  1564                 JUNCTION     0.60     0.95  1025.61     1  08:28        0.95
  1565                 JUNCTION     0.77     1.10  1025.85     1  08:28        1.10
  1566                 JUNCTION     0.87     1.23  1026.01     1  08:28        1.23
  1567                 JUNCTION     0.69     1.04  1026.16     1  08:27        1.04
  1568                 JUNCTION     0.73     1.06  1026.41     1  08:25        1.06
  1569                 JUNCTION     0.97     1.35  1025.56     1  08:28        1.35
  1570                 JUNCTION     0.85     1.20  1025.40     1  08:25        1.20
  1571                 JUNCTION     0.26     0.39  1025.76     1  08:02        0.39
  1572                 JUNCTION     0.28     0.43  1026.22     1  08:01        0.43
  1575                 JUNCTION     0.16     0.25  1030.99     1  08:00        0.25
  1576                 JUNCTION     0.17     0.26  1030.47     1  08:00        0.26
  1577                 JUNCTION     0.15     0.22  1029.99     1  08:00        0.22
  1578                 JUNCTION     0.17     0.26  1028.42     1  08:00        0.26
  1579                 JUNCTION     0.19     0.29  1027.83     1  08:00        0.29
  1580                 JUNCTION     0.17     0.26  1027.32     1  08:01        0.26
  1581                 JUNCTION     0.25     0.39  1026.77     1  08:00        0.39
  1582                 JUNCTION     0.68     1.02  1015.69     1  09:03        1.02
  1583                 JUNCTION     0.52     0.75  1017.09     1  09:01        0.75
  1584                 JUNCTION     0.49     0.71  1017.86     1  09:00        0.71
  1585                 JUNCTION     0.70     0.99  1018.53     1  09:00        0.99
  1586                 JUNCTION     0.72     1.07  1015.03     1  09:06        1.07
  1587                 JUNCTION     0.75     1.11  1015.55     1  09:03        1.11
  1588                 JUNCTION     0.72     1.07  1011.06     1  09:18        1.07
  1589                 JUNCTION     0.73     1.08  1011.61     1  09:16        1.08
  1590                 JUNCTION     0.66     0.98  1012.52     1  09:13        0.98
  1591                 JUNCTION     0.70     1.04  1012.86     1  09:12        1.04
  1592                 JUNCTION     0.87     1.26  1013.23     1  09:11        1.26
  1593                 JUNCTION     0.71     1.06  1010.51     1  09:20        1.06
  1594                 JUNCTION     0.92     1.33  1010.13     1  09:22        1.33
  1595                 JUNCTION     0.72     1.06  1009.70     1  09:24        1.06
  1596                 JUNCTION     0.68     1.00  1009.10     1  09:25        1.00
  1597                 JUNCTION     0.00     0.00  1003.47     0  00:00        0.00
  1598                 JUNCTION     1.07     1.49  1013.36     1  09:10        1.49
  1599                 JUNCTION     0.36     0.52  1013.53     1  09:09        0.52
  16                   JUNCTION     0.00     0.00  1030.68     0  00:00        0.00
  1600                 JUNCTION     0.75     1.04  1014.21     1  09:08        1.04
  1601                 JUNCTION     0.70     1.03  1014.38     1  09:08        1.03
  1602                 JUNCTION     0.84     1.19  1014.58     1  09:08        1.19
  1613                 JUNCTION     0.27     0.44  1029.08     1  07:59        0.43
  1614                 JUNCTION     0.27     0.43  1028.33     1  07:59        0.43
  1615                 JUNCTION     0.27     0.42  1027.70     1  07:58        0.42
  1616                 JUNCTION     0.27     0.41  1026.79     1  07:59        0.41
  1617                 JUNCTION     0.30     0.47  1025.99     1  08:01        0.47
  1618                 JUNCTION     0.27     0.42  1025.39     1  08:02        0.42
  1619                 JUNCTION     0.26     0.41  1024.69     1  08:02        0.41
  1620                 JUNCTION     0.25     0.39  1023.86     1  08:03        0.39
  1621                 JUNCTION     0.30     0.46  1023.11     1  08:04        0.46
  1622                 JUNCTION     0.14     0.21  1022.14     1  08:05        0.21
  1639                 JUNCTION     0.00     0.00  1022.16     0  00:00        0.00
  1641                 JUNCTION     0.02     0.03  1020.89     1  08:00        0.03
  1642                 JUNCTION     0.07     0.11  1020.65     1  08:00        0.11
  17                   JUNCTION     0.00     0.00  1030.24     0  00:00        0.00
  1712                 JUNCTION     0.16     0.24  1028.37     1  08:00        0.24
  1714                 JUNCTION     0.20     0.29  1028.61     1  08:00        0.29
  1715                 JUNCTION     0.17     0.26  1029.29     1  08:00        0.26
  1716                 JUNCTION     0.15     0.23  1029.55     1  08:00        0.23
  1717                 JUNCTION     0.14     0.21  1030.97     1  08:00        0.21
  1719                 JUNCTION     0.08     0.13  1025.39     1  08:00        0.13
  172                  JUNCTION     0.00     0.00  1009.26     0  00:00        0.00
  1720                 JUNCTION     0.04     0.06  1025.85     1  08:00        0.06
  1721                 JUNCTION     0.02     0.03  1026.53     1  08:00        0.03
  1722                 JUNCTION     0.00     0.00  1027.06     0  00:00        0.00
  1723                 JUNCTION     0.00     0.00  1027.87     0  00:00        0.00
  1724                 JUNCTION     0.00     0.00  1028.67     0  00:00        0.00
  1729                 JUNCTION     0.17     0.25  1031.43     1  08:00        0.25
  173                  JUNCTION     0.04     0.06  1008.99     1  08:00        0.06
  1730                 JUNCTION     0.17     0.25  1032.22     1  07:56        0.25
  1731                 JUNCTION     0.18     0.27  1032.79     1  08:00        0.27
  1732                 JUNCTION     0.15     0.22  1033.47     1  08:00        0.22
  1737                 JUNCTION     0.05     0.08  1026.71     1  08:00        0.08
  1738                 JUNCTION     0.08     0.11  1026.10     1  08:00        0.11
  1740                 JUNCTION     0.42     0.63  1011.86     1  08:51        0.63
  1741                 JUNCTION     0.15     0.23  1013.70     1  08:01        0.23
  1749                 JUNCTION     0.08     0.11  1017.01     1  08:00        0.11
  175                  JUNCTION     0.04     0.05  1012.86     1  08:00        0.05
  1750                 JUNCTION     0.06     0.09  1017.48     1  08:00        0.09
  1751                 JUNCTION     0.06     0.09  1018.11     1  08:00        0.09
  1752                 JUNCTION     0.05     0.08  1018.84     1  08:00        0.08
  1753                 JUNCTION     0.00     0.00  1019.42     0  00:00        0.00
  1756                 JUNCTION     0.11     0.17  1022.31     1  08:00        0.17
  1757                 JUNCTION     0.14     0.21  1021.86     1  08:00        0.21
  1758                 JUNCTION     0.14     0.21  1021.33     1  08:00        0.21
  1759                 JUNCTION     0.14     0.21  1020.91     1  08:01        0.21
  176                  JUNCTION     0.06     0.09  1009.68     1  08:00        0.09
  177                  JUNCTION     0.04     0.06  1011.81     1  08:00        0.06
  1777                 JUNCTION     0.00     0.00  1027.78     0  00:00        0.00
  178                  JUNCTION     0.05     0.08  1010.75     1  08:00        0.08
  1780                 JUNCTION     0.00     0.00  1031.07     0  00:00        0.00
  1781                 JUNCTION     0.00     0.00  1034.40     0  00:00        0.00
  1782                 JUNCTION     0.00     0.00  1039.42     0  00:00        0.00
  1785                 JUNCTION     0.36     0.60  1011.15     1  08:00        0.60
  179                  JUNCTION     0.00     0.00  1013.94     0  00:00        0.00
  18                   JUNCTION     0.00     0.00  1028.11     0  00:00        0.00
  181                  JUNCTION     0.02     0.04  1033.51     1  08:00        0.04
  182                  JUNCTION     0.00     0.00  1031.80     0  00:00        0.00
  183                  JUNCTION     0.01     0.02  1034.03     1  08:00        0.02
  184                  JUNCTION     0.00     0.00  1034.39     0  00:00        0.00
  185                  JUNCTION     0.02     0.02  1033.80     1  08:00        0.02
  186                  JUNCTION     0.03     0.05  1033.30     1  07:53        0.05
  187                  JUNCTION     0.03     0.05  1033.16     1  08:00        0.05
  188                  JUNCTION     0.04     0.05  1032.75     1  08:00        0.05
  189                  JUNCTION     0.04     0.06  1032.30     1  08:00        0.06
  19                   JUNCTION     0.00     0.00  1029.07     0  00:00        0.00
  190                  JUNCTION     0.05     0.07  1031.78     1  08:00        0.07
  191                  JUNCTION     0.05     0.08  1031.60     1  08:00        0.08
  192                  JUNCTION     0.05     0.07  1031.44     1  08:00        0.07
  193                  JUNCTION     0.05     0.08  1032.50     1  08:00        0.08
  194                  JUNCTION     0.07     0.11  1032.87     1  08:00        0.11
  195                  JUNCTION     0.00     0.00  1033.30     0  00:00        0.00
  198                  JUNCTION     0.01     0.02  1027.56     1  08:02        0.02
  201                  JUNCTION     0.02     0.03  1028.97     1  07:48        0.03
  202                  JUNCTION     0.02     0.03  1028.00     1  08:00        0.03
  203                  JUNCTION     0.01     0.02  1028.65     1  07:59        0.02
  210                  JUNCTION     0.01     0.02  1024.20     1  08:33        0.02
  211                  JUNCTION     0.02     0.02  1024.68     1  08:20        0.02
  212                  JUNCTION     0.02     0.03  1024.96     1  07:58        0.03
  213                  JUNCTION     0.02     0.03  1025.84     1  08:11        0.03
  214                  JUNCTION     0.02     0.02  1026.49     1  08:07        0.02
  215                  JUNCTION     0.02     0.02  1026.70     1  08:04        0.02
  217                  JUNCTION     0.79     1.13  1001.31     1  09:19        1.13
  218                  JUNCTION     0.31     0.45  1007.33     1  09:19        0.45
  219                  JUNCTION     0.43     0.68  1007.92     1  08:23        0.68
  220                  JUNCTION     0.00     0.00  1003.09     0  00:00        0.00
  221                  JUNCTION     0.00     0.00   997.88     0  00:00        0.00
  225                  JUNCTION     0.51     0.82  1013.34     1  08:10        0.82
  226                  JUNCTION     0.03     0.05  1024.18     1  08:00        0.05
  227                  JUNCTION     0.03     0.05  1025.01     1  08:02        0.05
  228                  JUNCTION     0.07     0.11  1024.30     1  08:00        0.11
  229                  JUNCTION     0.10     0.14  1023.18     1  08:00        0.14
  230                  JUNCTION     0.00     0.00  1025.14     0  00:00        0.00
  231                  JUNCTION     0.00     0.00  1025.19     0  00:00        0.00
  232                  JUNCTION     0.00     0.00  1025.83     0  00:00        0.00
  233                  JUNCTION     0.00     0.00  1026.26     0  00:00        0.00
  234                  JUNCTION     0.07     0.11  1025.02     1  08:00        0.11
  235                  JUNCTION     0.09     0.14  1024.65     1  08:00        0.14
  236                  JUNCTION     0.00     0.00  1024.88     0  00:00        0.00
  237                  JUNCTION     0.05     0.07  1025.40     1  08:00        0.07
  238                  JUNCTION     0.03     0.05  1023.07     1  08:00        0.05
  242                  JUNCTION     0.02     0.03  1067.10     1  08:00        0.03
  243                  JUNCTION     0.02     0.03  1067.62     1  07:58        0.03
  244                  JUNCTION     0.00     0.00  1068.20     0  00:00        0.00
  245                  JUNCTION     0.00     0.00  1066.09     0  00:00        0.00
  246                  JUNCTION     0.00     0.00  1067.13     0  00:00        0.00
  286                  JUNCTION     0.11     0.15  1029.30     1  07:59        0.15
  287                  JUNCTION     0.08     0.24  1029.09     1  07:58        0.23
  288                  JUNCTION     0.08     0.13  1029.64     1  08:00        0.13
  289                  JUNCTION     0.02     0.04  1032.81     1  08:00        0.04
  29                   JUNCTION     0.10     0.15  1024.44     1  08:00        0.15
  290                  JUNCTION     0.02     0.04  1032.09     1  08:00        0.04
  291                  JUNCTION     0.00     0.00  1033.55     0  00:00        0.00
  292                  JUNCTION     0.03     0.04  1031.71     1  08:00        0.04
  293                  JUNCTION     0.04     0.06  1031.47     1  08:00        0.06
  294                  JUNCTION     0.04     0.06  1031.11     1  08:00        0.06
  295                  JUNCTION     0.02     0.03  1031.14     1  08:00        0.03
  296                  JUNCTION     0.03     0.05  1031.32     1  08:00        0.05
  297                  JUNCTION     0.00     0.00  1031.69     0  00:00        0.00
  3                    JUNCTION     0.00     0.00  1024.33     0  00:00        0.00
  302                  JUNCTION     0.08     0.11  1030.50     1  08:00        0.11
  303                  JUNCTION     0.10     0.14  1029.87     1  08:00        0.14
  304                  JUNCTION     0.06     0.09  1030.01     1  08:00        0.09
  332                  JUNCTION     0.50     0.74  1031.32     1  08:04        0.74
  333                  JUNCTION     0.65     0.95  1031.61     1  08:03        0.95
  334                  JUNCTION     0.55     0.86  1031.78     1  08:02        0.86
  336                  JUNCTION     0.43     0.67  1030.85     1  08:07        0.66
  337                  JUNCTION     0.46     0.73  1031.94     1  08:01        0.72
  338                  JUNCTION     0.44     0.67  1032.29     1  08:00        0.67
  339                  JUNCTION     0.51     0.81  1032.80     1  07:45        0.80
  344                  JUNCTION     0.10     0.16  1031.20     1  08:01        0.16
  354                  JUNCTION     0.03     0.05  1034.49     1  08:00        0.05
  356                  JUNCTION     0.05     0.07  1033.81     1  07:54        0.07
  357                  JUNCTION     0.04     0.06  1033.53     1  07:59        0.06
  358                  JUNCTION     0.04     0.07  1033.24     1  08:00        0.07
  359                  JUNCTION     0.05     0.07  1032.33     1  08:00        0.07
  360                  JUNCTION     0.06     0.08  1031.14     1  08:00        0.08
  361                  JUNCTION     0.14     0.21  1027.76     1  08:02        0.20
  362                  JUNCTION     0.23     0.32  1028.03     1  08:00        0.32
  363                  JUNCTION     0.16     0.24  1028.69     1  08:00        0.24
  364                  JUNCTION     0.13     0.19  1028.91     1  08:00        0.19
  365                  JUNCTION     0.15     0.22  1029.15     1  08:00        0.22
  366                  JUNCTION     0.12     0.18  1029.87     1  08:00        0.18
  367                  JUNCTION     0.11     0.17  1030.42     1  08:00        0.17
  368                  JUNCTION     0.11     0.16  1030.84     1  08:00        0.16
  378                  JUNCTION     0.30     0.45  1016.90     1  08:22        0.45
  379                  JUNCTION     0.29     0.44  1016.73     1  08:23        0.44
  380                  JUNCTION     0.30     0.45  1016.54     1  08:25        0.45
  381                  JUNCTION     0.33     0.51  1016.26     1  08:28        0.51
  382                  JUNCTION     0.35     0.54  1015.96     1  08:31        0.54
  383                  JUNCTION     0.32     0.50  1015.72     1  08:34        0.50
  384                  JUNCTION     0.36     0.53  1015.48     1  08:36        0.53
  385                  JUNCTION     0.26     0.40  1015.09     1  08:39        0.40
  386                  JUNCTION     0.37     0.56  1014.50     1  08:42        0.56
  387                  JUNCTION     0.34     0.51  1014.33     1  08:44        0.51
  388                  JUNCTION     0.30     0.45  1014.20     1  08:44        0.45
  389                  JUNCTION     0.29     0.44  1014.00     1  08:45        0.44
  4                    JUNCTION     0.00     0.00  1024.58     0  00:00        0.00
  41                   JUNCTION     0.11     0.17  1004.23     1  08:00        0.17
  418                  JUNCTION     0.11     0.16  1031.50     1  08:00        0.16
  419                  JUNCTION     0.12     0.17  1031.99     1  08:00        0.17
  42                   JUNCTION     0.10     0.16  1006.54     1  07:57        0.16
  420                  JUNCTION     0.10     0.15  1032.51     1  08:00        0.15
  421                  JUNCTION     0.10     0.14  1033.04     1  08:00        0.14
  424                  JUNCTION     0.04     0.06  1063.95     1  08:00        0.06
  425                  JUNCTION     0.04     0.05  1064.69     1  08:00        0.05
  426                  JUNCTION     0.02     0.03  1066.02     1  08:02        0.03
  427                  JUNCTION     0.02     0.03  1065.37     1  08:06        0.03
  428                  JUNCTION     0.02     0.03  1066.90     1  08:00        0.03
  429                  JUNCTION     0.05     0.07  1031.62     1  08:00        0.07
  43                   JUNCTION     0.37     0.56  1009.41     1  08:10        0.56
  430                  JUNCTION     0.09     0.13  1026.84     1  08:00        0.13
  431                  JUNCTION     0.10     0.14  1026.99     1  08:00        0.14
  432                  JUNCTION     0.07     0.10  1027.52     1  08:00        0.10
  433                  JUNCTION     0.07     0.11  1027.89     1  08:00        0.11
  434                  JUNCTION     0.10     0.15  1028.24     1  08:00        0.15
  435                  JUNCTION     0.08     0.12  1028.63     1  08:00        0.12
  436                  JUNCTION     0.11     0.15  1028.84     1  08:00        0.15
  441                  JUNCTION     0.07     0.10  1029.67     1  08:00        0.10
  442                  JUNCTION     0.07     0.11  1030.66     1  08:00        0.11
  443                  JUNCTION     0.04     0.06  1031.78     1  08:00        0.06
  444                  JUNCTION     0.04     0.06  1032.39     1  08:00        0.06
  445                  JUNCTION     0.03     0.05  1032.97     1  08:00        0.05
  446                  JUNCTION     0.07     0.11  1024.41     1  08:05        0.11
  447                  JUNCTION     0.09     0.14  1025.08     1  08:04        0.14
  448                  JUNCTION     0.09     0.13  1025.33     1  08:03        0.13
  449                  JUNCTION     0.09     0.13  1026.09     1  08:02        0.13
  450                  JUNCTION     0.11     0.16  1026.25     1  08:00        0.16
  451                  JUNCTION     0.11     0.17  1026.33     1  08:00        0.17
  452                  JUNCTION     0.03     0.04  1033.44     1  08:00        0.04
  453                  JUNCTION     0.02     0.03  1033.94     1  08:00        0.03
  454                  JUNCTION     0.01     0.02  1034.41     1  08:00        0.02
  455                  JUNCTION     0.35     0.52  1020.08     1  08:02        0.52
  456                  JUNCTION     0.29     0.44  1019.74     1  08:05        0.44
  457                  JUNCTION     0.30     0.46  1019.31     1  08:07        0.46
  458                  JUNCTION     0.31     0.47  1018.94     1  08:09        0.47
  459                  JUNCTION     0.29     0.44  1018.54     1  08:12        0.44
  460                  JUNCTION     0.30     0.46  1018.10     1  08:14        0.46
  461                  JUNCTION     0.30     0.46  1017.72     1  08:18        0.46
  462                  JUNCTION     0.41     0.59  1017.45     1  08:20        0.59
  463                  JUNCTION     0.23     0.34  1017.05     1  08:21        0.34
  499                  JUNCTION     0.08     0.12  1063.58     1  08:00        0.12
  5                    JUNCTION     0.00     0.00  1024.81     0  00:00        0.00
  501                  JUNCTION     0.00     0.00  1034.71     0  00:00        0.00
  506                  JUNCTION     0.11     0.16  1033.91     1  08:00        0.16
  507                  JUNCTION     0.06     0.08  1033.13     1  08:00        0.08
  527                  JUNCTION     0.00     0.00  1028.52     0  00:00        0.00
  528                  JUNCTION     0.02     0.04  1027.93     1  08:00        0.04
  529                  JUNCTION     0.04     0.06  1027.62     1  08:00        0.06
  53                   JUNCTION     0.03     0.04  1026.54     1  08:00        0.04
  54                   JUNCTION     0.03     0.04  1025.29     1  08:00        0.04
  544                  JUNCTION     0.09     0.14  1023.46     1  08:00        0.14
  545                  JUNCTION     0.02     0.02  1022.51     1  09:36        0.02
  546                  JUNCTION     0.15     0.23  1022.19     1  08:00        0.23
  547                  JUNCTION     0.17     0.25  1020.84     1  08:01        0.25
  548                  JUNCTION     0.02     0.03  1024.10     1  08:38        0.03
  549                  JUNCTION     0.01     0.02  1023.60     1  08:58        0.02
  550                  JUNCTION     0.01     0.02  1023.00     1  09:11        0.02
  551                  JUNCTION     0.17     0.24  1021.67     1  08:00        0.24
  56                   JUNCTION     0.17     0.26  1030.39     1  08:00        0.26
  565                  JUNCTION     0.03     0.05  1014.69     1  08:00        0.05
  566                  JUNCTION     0.04     0.06  1029.22     1  07:56        0.06
  567                  JUNCTION     0.08     0.12  1021.09     1  08:01        0.12
  568                  JUNCTION     0.13     0.19  1022.21     1  08:00        0.19
  569                  JUNCTION     0.08     0.12  1023.14     1  07:59        0.12
  570                  JUNCTION     0.10     0.16  1023.65     1  07:51        0.16
  572                  JUNCTION     0.19     0.28  1015.35     1  08:00        0.28
  58                   JUNCTION     0.38     0.57  1010.80     1  09:02        0.57
  586                  JUNCTION     0.06     0.09  1025.11     1  08:00        0.09
  587                  JUNCTION     0.06     0.09  1025.48     1  08:00        0.09
  588                  JUNCTION     0.06     0.08  1025.94     1  08:00        0.08
  589                  JUNCTION     0.05     0.08  1026.41     1  08:00        0.08
  590                  JUNCTION     0.06     0.08  1026.91     1  08:00        0.08
  597                  JUNCTION     0.06     0.08  1023.83     1  08:00        0.08
  598                  JUNCTION     0.08     0.12  1024.25     1  08:00        0.12
  599                  JUNCTION     0.08     0.11  1024.68     1  08:00        0.11
  6                    JUNCTION     0.00     0.00  1025.25     0  00:00        0.00
  605                  JUNCTION     0.14     0.21  1022.76     1  08:00        0.21
  635                  JUNCTION     0.11     0.17  1029.92     1  08:00        0.17
  636                  JUNCTION     0.31     0.44  1027.76     1  08:00        0.44
  639                  JUNCTION     0.11     0.16  1030.58     1  08:00        0.16
  646                  JUNCTION     0.18     0.27  1027.46     1  08:00        0.27
  647                  JUNCTION     0.11     0.16  1030.31     1  08:00        0.16
  65                   JUNCTION     0.00     0.00  1024.01     0  00:00        0.00
  650                  JUNCTION     0.02     0.03  1032.36     1  08:00        0.03
  651                  JUNCTION     0.03     0.04  1031.32     1  08:00        0.04
  652                  JUNCTION     0.03     0.04  1031.10     1  08:00        0.04
  653                  JUNCTION     0.04     0.06  1030.80     1  08:00        0.06
  654                  JUNCTION     0.05     0.07  1030.62     1  08:00        0.07
  659                  JUNCTION     0.13     0.19  1029.10     1  08:00        0.19
  66                   JUNCTION     0.00     0.00  1023.51     0  00:00        0.00
  67                   JUNCTION     0.00     0.00  1038.86     0  00:00        0.00
  672                  JUNCTION     0.12     0.18  1029.50     1  08:00        0.18
  675                  JUNCTION     0.09     0.14  1032.32     1  08:00        0.14
  676                  JUNCTION     0.15     0.22  1031.76     1  08:00        0.22
  68                   JUNCTION     0.20     0.33  1033.80     1  07:56        0.33
  682                  JUNCTION     0.12     0.18  1021.11     1  08:00        0.18
  683                  JUNCTION     0.11     0.17  1021.94     1  08:00        0.17
  684                  JUNCTION     0.10     0.15  1022.99     1  08:00        0.15
  685                  JUNCTION     0.11     0.17  1022.29     1  08:00        0.17
  69                   JUNCTION     0.03     0.05  1025.74     1  08:01        0.05
  7                    JUNCTION     0.00     0.00  1025.73     0  00:00        0.00
  70                   JUNCTION     0.03     0.05  1026.35     1  08:00        0.05
  708                  JUNCTION     0.38     0.57  1010.68     1  09:03        0.57
  709                  JUNCTION     0.38     0.58  1010.36     1  09:05        0.58
  71                   JUNCTION     0.00     0.00  1027.82     0  00:00        0.00
  710                  JUNCTION     0.39     0.56  1010.08     1  09:06        0.56
  711                  JUNCTION     0.39     0.61  1009.53     1  09:00        0.61
  712                  JUNCTION     1.13     1.39  1009.44     1  09:01        1.39
  713                  JUNCTION     1.64     1.90  1009.43     1  09:01        1.90
  714                  JUNCTION     0.61     0.84  1009.36     1  09:02        0.84
  715                  JUNCTION     0.35     0.51  1009.09     1  09:00        0.51
  716                  JUNCTION     0.47     0.67  1008.33     1  09:00        0.67
  717                  JUNCTION     0.41     0.63  1011.62     1  08:54        0.63
  718                  JUNCTION     0.46     0.67  1011.08     1  09:00        0.67
  719                  JUNCTION     0.45     0.68  1011.14     1  09:00        0.68
  72                   JUNCTION     0.00     0.00  1027.49     0  00:00        0.00
  720                  JUNCTION     0.44     0.67  1011.20     1  09:00        0.67
  721                  JUNCTION     0.45     0.67  1011.25     1  09:00        0.67
  722                  JUNCTION     0.45     0.68  1011.41     1  08:57        0.68
  723                  JUNCTION     0.45     0.68  1011.47     1  08:56        0.68
  724                  JUNCTION     0.45     0.68  1011.52     1  08:56        0.68
  725                  JUNCTION     0.31     0.47  1012.12     1  08:51        0.47
  727                  JUNCTION     0.29     0.45  1012.47     1  08:50        0.45
  728                  JUNCTION     0.29     0.44  1012.79     1  08:49        0.44
  73                   JUNCTION     0.03     0.05  1026.85     1  07:54        0.05
  730                  JUNCTION     0.28     0.42  1013.46     1  08:47        0.42
  731                  JUNCTION     0.31     0.48  1013.84     1  08:46        0.48
  732                  JUNCTION     0.02     0.04  1020.68     1  08:00        0.04
  733                  JUNCTION     0.09     0.14  1023.96     1  08:00        0.14
  734                  JUNCTION     0.09     0.14  1024.69     1  08:00        0.14
  74                   JUNCTION     0.00     0.00  1027.34     0  00:00        0.00
  745                  JUNCTION     0.11     0.17  1021.46     1  08:00        0.17
  746                  JUNCTION     0.12     0.19  1021.01     1  08:00        0.19
  747                  JUNCTION     0.09     0.13  1024.74     1  08:00        0.13
  750                  JUNCTION     0.07     0.11  1025.59     1  08:00        0.11
  751                  JUNCTION     0.08     0.12  1025.07     1  08:00        0.12
  754                  JUNCTION     0.09     0.14  1024.47     1  08:00        0.14
  755                  JUNCTION     0.08     0.12  1024.21     1  08:00        0.12
  758                  JUNCTION     0.09     0.14  1023.26     1  08:00        0.14
  759                  JUNCTION     0.10     0.14  1022.34     1  08:00        0.14
  760                  JUNCTION     0.10     0.14  1022.06     1  08:00        0.14
  784                  JUNCTION     0.21     0.32  1014.82     1  08:00        0.32
  785                  JUNCTION     0.14     0.22  1023.05     1  08:00        0.22
  798                  JUNCTION     0.12     0.19  1020.59     1  08:00        0.19
  799                  JUNCTION     0.14     0.21  1020.16     1  08:00        0.21
  8                    JUNCTION     0.00     0.00  1026.25     0  00:00        0.00
  800                  JUNCTION     0.14     0.22  1019.36     1  08:00        0.22
  801                  JUNCTION     0.13     0.20  1018.60     1  08:00        0.20
  803                  JUNCTION     0.15     0.22  1017.50     1  08:00        0.22
  805                  JUNCTION     0.16     0.24  1016.82     1  08:00        0.24
  806                  JUNCTION     0.13     0.20  1016.44     1  08:00        0.20
  807                  JUNCTION     0.18     0.27  1015.84     1  08:00        0.27
  808                  JUNCTION     0.16     0.24  1015.73     1  08:00        0.24
  809                  JUNCTION     0.14     0.21  1015.15     1  08:00        0.21
  811                  JUNCTION     0.18     0.27  1020.48     1  08:00        0.27
  820                  JUNCTION     0.14     0.22  1022.59     1  07:51        0.22
  841                  JUNCTION     0.41     0.65  1019.22     1  08:01        0.65
  842                  JUNCTION     0.32     0.49  1038.37     1  07:53        0.49
  843                  JUNCTION     0.18     0.27  1028.34     1  08:00        0.27
  844                  JUNCTION     0.38     0.59  1036.92     1  07:56        0.59
  847                  JUNCTION     0.31     0.48  1035.92     1  07:57        0.48
  848                  JUNCTION     0.37     0.56  1036.18     1  07:57        0.56
  849                  JUNCTION     0.34     0.53  1036.57     1  07:56        0.53
  850                  JUNCTION     0.30     0.47  1037.54     1  07:55        0.47
  851                  JUNCTION     0.20     0.30  1034.52     1  07:59        0.30
  852                  JUNCTION     0.36     0.54  1035.37     1  07:58        0.54
  863                  JUNCTION     0.11     0.16  1017.46     1  07:53        0.16
  869                  JUNCTION     0.19     0.29  1031.34     1  07:48        0.29
  870                  JUNCTION     0.11     0.16  1030.04     1  07:51        0.16
  891                  JUNCTION     0.10     0.14  1023.56     1  08:00        0.14
  892                  JUNCTION     0.13     0.21  1020.55     1  08:00        0.21
  893                  JUNCTION     0.15     0.22  1021.81     1  07:57        0.22
  894                  JUNCTION     0.19     0.28  1022.77     1  08:00        0.28
  895                  JUNCTION     0.38     0.58  1019.96     1  08:00        0.58
  896                  JUNCTION     0.18     0.27  1021.37     1  08:00        0.27
  897                  JUNCTION     0.20     0.30  1022.42     1  08:00        0.30
  898                  JUNCTION     0.09     0.14  1029.01     1  08:00        0.14
  899                  JUNCTION     0.18     0.26  1030.01     1  08:00        0.26
  9                    JUNCTION     0.00     0.00  1026.92     0  00:00        0.00
  900                  JUNCTION     0.30     0.46  1040.71     1  07:51        0.46
  901                  JUNCTION     0.33     0.52  1041.71     1  07:49        0.52
  913                  JUNCTION     0.37     0.52  1014.59     1  08:00        0.52
  919                  JUNCTION     0.35     0.54  1042.12     1  07:58        0.54
  921                  JUNCTION     0.18     0.28  1047.18     1  07:51        0.28
  932                  JUNCTION     0.00     0.00  1037.41     0  00:00        0.00
  936                  JUNCTION     0.12     0.18  1031.41     1  08:00        0.18
  937                  JUNCTION     0.17     0.25  1030.68     1  08:00        0.25
  939                  JUNCTION     0.11     0.16  1036.70     1  08:00        0.16
  944                  JUNCTION     0.10     0.14  1015.53     1  08:00        0.14
  945                  JUNCTION     0.09     0.11  1015.21     1  08:00        0.11
  947                  JUNCTION     0.17     0.25  1014.89     1  08:00        0.25
  96                   JUNCTION     0.08     0.11  1037.68     1  08:10        0.11
  962                  JUNCTION     0.09     0.13  1014.57     1  08:00        0.13
  963                  JUNCTION     0.12     0.17  1014.78     1  08:00        0.17
  97                   JUNCTION     0.06     0.08  1037.25     1  08:10        0.08
  98                   JUNCTION     0.08     0.12  1036.54     1  08:14        0.12
  99                   JUNCTION     0.06     0.09  1040.97     1  08:00        0.09
  NON_MOD_21IN_TO_24IN_1740 JUNCTION     0.38     0.58  1011.72     1  08:52        0.58
  NON_MOD_MH1524-1500  JUNCTION     0.15     0.24  1023.40     1  07:59        0.24
  NON_MOD_MH867        JUNCTION     0.00     0.00  1031.60     0  00:00        0.00
  NON_MOD_MH954        JUNCTION     0.04     0.15  1026.93     1  07:56        0.14
  NON_MOD_MH_FROM_1092 JUNCTION     0.07     0.11  1012.21     1  08:07        0.11
  NON_MOD_MH_TO_LS9    JUNCTION     0.34     0.41  1027.72     1  08:00        0.41
  NON_MOD_TO_MH1480    JUNCTION     0.16     0.24  1018.26     1  08:05        0.24
  OUTFALL_JUNCTION     JUNCTION     1.10     1.50     1.50     0  08:27        1.50
  OFALL                OUTFALL      0.80     1.06     1.06     1  08:09        1.06
  LS1                  STORAGE      4.09     6.55   996.55     1  09:30        6.54
  LS10                 STORAGE      0.00     0.00   984.00     0  00:00        0.00
  LS12                 STORAGE      3.82     6.05  1007.78     1  08:45        5.90
  LS2                  STORAGE      3.38     5.33   991.91     1  07:21        5.16
  LS3                  STORAGE      4.76     5.95  1010.95     1  09:00        5.91
  LS4                  STORAGE      7.96     9.04  1009.04     1  07:41        8.89
  LS7                  STORAGE      3.37     4.50  1005.43     1  07:55        4.50
  LS8                  STORAGE      0.00     0.00  1010.50     0  00:00        0.00
  LS9                  STORAGE      4.53     5.05  1026.55     1  07:54        5.04
  
  
  *******************
  Node Inflow Summary
  *******************
  
  -------------------------------------------------------------------------------------------------
                                  Maximum  Maximum                  Lateral       Total        Flow
                                  Lateral    Total  Time of Max      Inflow      Inflow     Balance
                                   Inflow   Inflow   Occurrence      Volume      Volume       Error
  Node                 Type           GPM      GPM  days hr:min    10^6 gal    10^6 gal     Percent
  -------------------------------------------------------------------------------------------------
  1004                 JUNCTION      1.40   174.09     1  08:00     0.00224       0.217       0.090
  1005                 JUNCTION      0.00   145.91     1  08:00           0       0.182       0.037
  1006                 JUNCTION      3.36   146.12     1  08:00     0.00416       0.182       0.059
  1013                 JUNCTION      8.68   134.12     1  08:00      0.0107       0.167       0.047
  1014                 JUNCTION      8.46   142.95     1  08:00      0.0105       0.178       0.057
  1015                 JUNCTION      0.61   134.60     1  08:00    0.000753       0.167       0.038
  1016                 JUNCTION      2.22   125.62     1  08:00     0.00275       0.156       0.072
  1017                 JUNCTION     25.37   123.48     1  08:00      0.0314       0.153       0.036
  1019                 JUNCTION     16.75   190.47     1  08:00      0.0255       0.243       0.017
  1078                 JUNCTION      0.00    38.53     1  08:00           0      0.0478       0.435
  1092                 JUNCTION      0.00    37.99     1  08:02           0      0.0476       0.159
  1099                 JUNCTION      0.00   617.43     1  08:00           0       0.765       0.044
  11                   JUNCTION      0.00  2999.15     1  09:13           0        4.22       0.064
  1101                 JUNCTION     21.73   617.49     1  08:00      0.0269       0.765       0.022
  1102                 JUNCTION      0.00   595.89     1  08:00           0       0.738       0.033
  1105                 JUNCTION      0.00   595.93     1  08:00           0       0.738       0.014
  1106                 JUNCTION      0.00   595.95     1  08:00           0       0.738       0.010
  111                  JUNCTION      0.00     0.00     0  00:00           0           0       0.000 gal
  1111                 JUNCTION    492.77   558.53     1  08:00        0.61       0.691       0.027
  1112                 JUNCTION      0.00    65.77     1  08:00           0      0.0813       0.083
  1113                 JUNCTION      0.00    65.77     1  08:00           0      0.0813       0.005
  112                  JUNCTION      0.00     0.00     0  00:00           0           0       0.000 gal
  1122                 JUNCTION     21.43    65.78     1  08:00      0.0265      0.0813       0.040
  1124                 JUNCTION      0.43    44.35     1  08:00    0.000537      0.0549       0.073
  1127                 JUNCTION     39.27    43.91     1  08:00      0.0486      0.0544       0.054
  113                  JUNCTION      2.51     2.51     1  07:45     0.00311     0.00311       0.158
  1133                 JUNCTION      0.00     4.04     1  08:00           0     0.00499       0.075
  114                  JUNCTION     12.09    14.60     1  08:00       0.015      0.0181       0.117
  1145                 JUNCTION      1.21     4.04     1  08:00     0.00149     0.00499       0.040
  1146                 JUNCTION      1.16     2.84     1  08:00     0.00144     0.00351       0.259
  1147                 JUNCTION      0.00     1.67     1  07:48           0     0.00207       0.104
  1148                 JUNCTION      1.67     1.67     1  07:45     0.00207     0.00207       0.065
  115                  JUNCTION      0.36    14.96     1  08:00    0.000451      0.0185       0.022
  1152                 JUNCTION     25.02    40.31     1  08:00       0.031      0.0499       0.071
  1153                 JUNCTION      0.00     0.00     0  00:00           0           0       0.000 gal
  1155                 JUNCTION      0.00     0.00     0  00:00           0           0       0.000 gal
  1156                 JUNCTION      0.00     0.00     0  00:00           0           0       0.000 gal
  1157                 JUNCTION      0.00     0.00     0  00:00           0           0       0.000 gal
  1158                 JUNCTION      0.00     0.00     0  00:00           0           0       0.000 gal
  1159                 JUNCTION      0.00     0.00     0  00:00           0           0       0.000 gal
  116                  JUNCTION      0.82    16.23     1  08:00     0.00102      0.0201       0.045
  1160                 JUNCTION      0.00     0.00     0  00:00           0           0       0.000 gal
  1161                 JUNCTION      0.00     0.00     0  00:00           0           0       0.000 gal
  1162                 JUNCTION      0.00  1381.10     1  08:22           0        1.71       0.036
  1163                 JUNCTION      5.00  1381.37     1  08:20     0.00619        1.71       0.067
  1164                 JUNCTION      4.89  1377.48     1  08:18     0.00605         1.7       0.063
  1165                 JUNCTION      0.00  1373.66     1  08:17           0         1.7       0.062
  1166                 JUNCTION      0.00  1373.97     1  08:15           0         1.7       0.062
  1167                 JUNCTION      0.00  1374.45     1  08:14           0         1.7       0.061
  1168                 JUNCTION      4.66  1374.71     1  08:13     0.00577         1.7       0.039
  1169                 JUNCTION      0.00    45.05     1  08:00           0      0.0556       0.089
  117                  JUNCTION      0.62    16.84     1  08:00    0.000763      0.0208       0.073
  1170                 JUNCTION      0.00    45.01     1  08:00           0      0.0556       0.074
  1171                 JUNCTION      0.00    44.98     1  08:02           0      0.0555       0.032
  1172                 JUNCTION      0.00  1370.67     1  08:12           0         1.7       0.064
  1173                 JUNCTION      0.00  1327.25     1  08:12           0        1.64       0.021
  1174                 JUNCTION      0.00  1327.45     1  08:11           0        1.64       0.035
  1175                 JUNCTION      0.00  1327.52     1  08:10           0        1.64       0.029
  1176                 JUNCTION      0.00  1323.17     1  08:09           0        1.64       0.032
  1177                 JUNCTION      2.34  1323.22     1  08:08      0.0029        1.64       0.020
  1178                 JUNCTION      0.67  1321.12     1  08:08    0.000832        1.64       0.006
  1179                 JUNCTION      3.75  1212.83     1  08:07     0.00464         1.5       0.067
  118                  JUNCTION      0.67    17.50     1  08:00    0.000824      0.0216       0.028
  1180                 JUNCTION      0.00  1209.56     1  08:06           0        1.49       0.069
  1181                 JUNCTION      0.00  1210.03     1  08:04           0         1.5       0.094
  1182                 JUNCTION      0.00  1212.47     1  08:03           0         1.5       0.044
  1184                 JUNCTION    107.39   295.41     1  07:45       0.133       0.289      -0.082
  1185                 JUNCTION      0.00   327.07     1  07:45           0       0.289       0.085
  1186                 JUNCTION      0.00   266.14     1  07:56           0       0.288       0.020
  1187                 JUNCTION      0.00   240.81     1  07:58           0       0.288       0.045
  1188                 JUNCTION      0.00   235.45     1  07:59           0       0.288       0.057
  1189                 JUNCTION      0.00   233.78     1  08:01           0       0.288       0.098
  119                  JUNCTION      0.00    17.50     1  08:00           0      0.0216       0.058
  1190                 JUNCTION      0.00   232.91     1  08:03           0       0.287       0.017
  1191                 JUNCTION      0.00   233.14     1  08:02           0       0.288       0.030
  1192                 JUNCTION      0.00   233.10     1  08:02           0       0.288       0.038
  1193                 JUNCTION      0.00   232.90     1  08:04           0       0.287       0.024
  1196                 JUNCTION      4.35  1232.69     1  08:02     0.00539         1.5       0.073
  1197                 JUNCTION      8.95  1260.81     1  07:59      0.0111        1.21       0.088
  1198                 JUNCTION      0.00  1421.89     0  00:24           0         1.2       0.257
  120                  JUNCTION      0.00    17.50     1  08:00           0      0.0216       0.082
  121                  JUNCTION      0.68    18.16     1  08:00    0.000846      0.0224       0.148
  1216                 JUNCTION     13.86   968.66     1  08:00      0.0172         1.2       0.035
  1217                 JUNCTION      0.00   955.53     1  08:00           0        1.18       0.054
  1218                 JUNCTION      2.67   955.85     1  08:00      0.0033        1.18       0.030
  122                  JUNCTION      0.00    18.11     1  08:01           0      0.0224       0.035
  123                  JUNCTION      1.29    23.31     1  08:00      0.0016      0.0294       0.036
  124                  JUNCTION      0.00    18.11     1  08:00           0      0.0224       0.040
  125                  JUNCTION      0.00    18.11     1  08:02           0      0.0224       0.092
  126                  JUNCTION      0.46    18.51     1  08:00    0.000571      0.0229       0.230
  1261                 JUNCTION      0.00  1049.60     1  08:08           0        1.31       0.025
  1262                 JUNCTION      2.71  1051.81     1  08:09     0.00335        1.32       0.041
  1263                 JUNCTION     51.09  1156.09     1  08:09      0.0632        1.45       0.038
  1264                 JUNCTION     44.81  1196.01     1  08:00      0.0713        1.53      -1.123
  127                  JUNCTION      0.00    18.46     1  08:11           0      0.0228       0.088
  1285                 JUNCTION    136.50   953.58     1  08:00       0.169        1.18       0.038
  1286                 JUNCTION      1.27   817.39     1  08:00     0.00157        1.01       0.047
  1288                 JUNCTION      1.87   816.33     1  08:00     0.00232        1.01       0.044
  129                  JUNCTION      0.40    18.80     1  08:13     0.00049      0.0233       0.020
  1294                 JUNCTION      0.00   194.63     1  08:00           0       0.241       0.051
  1297                 JUNCTION      0.00   194.63     1  08:00           0       0.241       0.016
  1299                 JUNCTION      0.00   814.56     1  08:00           0        1.01       0.022
  130                  JUNCTION      1.10    19.78     1  08:15     0.00136      0.0246       0.054
  1300                 JUNCTION      1.52   197.27     1  08:00     0.00188       0.244       0.017
  1301                 JUNCTION      0.00   195.78     1  08:00           0       0.242       0.079
  1303                 JUNCTION      1.16   195.79     1  08:00     0.00144       0.242       0.034
  1304                 JUNCTION      0.00   194.63     1  08:00           0       0.241       0.006
  131                  JUNCTION      2.55    22.08     1  08:00     0.00316      0.0278       0.063
  132                  JUNCTION      0.00    23.28     1  08:00           0      0.0294       0.027
  1329                 JUNCTION      0.00  1049.73     1  08:07           0        1.31       0.025
  133                  JUNCTION      0.70    31.97     1  08:00    0.000861      0.0402       0.082
  1330                 JUNCTION      0.00  1049.83     1  08:07           0        1.31       0.042
  1331                 JUNCTION      0.00  1050.12     1  08:05           0        1.31       0.028
  1332                 JUNCTION      0.00  1049.92     1  08:06           0        1.31       0.029
  1337                 JUNCTION      0.00  1050.18     1  08:05           0        1.31       0.013
  1338                 JUNCTION     29.05  1050.21     1  08:05       0.036        1.31       0.008
  1339                 JUNCTION      0.79  1024.35     1  08:05    0.000972        1.28       0.013
  134                  JUNCTION      8.14    31.39     1  08:00      0.0101      0.0394       0.120
  1343                 JUNCTION      1.54  1001.37     1  08:03     0.00191        1.25       0.047
  1347                 JUNCTION     25.73  1023.92     1  08:04      0.0319        1.28       0.038
  1348                 JUNCTION     43.04  1001.08     1  08:00      0.0533        1.25       0.045
  1372                 JUNCTION      0.00    81.83     1  07:48           0       0.101       0.099
  1378                 JUNCTION    112.81   194.63     1  08:00        0.14       0.241       0.033
  1379                 JUNCTION      0.00    81.82     1  07:50           0       0.101       0.025
  14                   JUNCTION      0.00     0.00     0  00:00           0           0       0.000 gal
  1400                 JUNCTION      3.74   603.79     1  07:52     0.00463        0.74       0.106
  1401                 JUNCTION     16.67   601.74     1  07:51      0.0206       0.735       0.056
  1448                 JUNCTION      2.15   393.18     1  07:59     0.00266       0.487       0.022
  1449                 JUNCTION      2.86   391.12     1  07:57     0.00355       0.485       0.118
  1453                 JUNCTION      1.96   388.42     1  07:55     0.00242       0.482       0.016
  1477                 JUNCTION      2.75   310.87     1  07:52     0.00341       0.386       0.082
  1478                 JUNCTION     76.03   386.73     1  07:54      0.0941        0.48       0.071
  1480                 JUNCTION    190.40   308.28     1  07:50       0.236       0.383       0.102
  15                   JUNCTION      0.00     0.00     0  00:00           0           0       0.000 gal
  1500                 JUNCTION      0.00   124.70     1  07:59           0       0.147       0.143
  1505                 JUNCTION      6.47   107.01     1  08:00     0.00801       0.132       0.028
  1508                 JUNCTION      7.65   100.59     1  08:00     0.00947       0.124       0.110
  1515                 JUNCTION     48.29    92.95     1  08:00      0.0598       0.115       0.124
  1519                 JUNCTION     15.29    15.29     1  07:45      0.0189      0.0189       0.076
  1520                 JUNCTION      4.36    44.67     1  08:00      0.0054      0.0552       0.122
  1524                 JUNCTION      0.00    12.82     1  08:00           0      0.0159       0.119
  1535                 JUNCTION      0.00  2888.40     1  08:54           0        4.09       0.060
  1536                 JUNCTION      0.00  2888.28     1  08:55           0        4.09       0.074
  1537                 JUNCTION      0.00  2888.00     1  08:57           0        4.08       0.079
  1538                 JUNCTION      0.00  2887.61     1  08:59           0        4.08       0.104
  1539                 JUNCTION      0.00  2887.38     1  09:01           0        4.08       0.071
  1540                 JUNCTION      0.00  2969.14     1  09:00           0        4.19       0.093
  1541                 JUNCTION      0.00  2888.51     1  08:53           0        4.09       0.080
  1542                 JUNCTION      0.00  2888.63     1  08:51           0         4.1       0.072
  1543                 JUNCTION      0.00  2888.95     1  08:49           0         4.1       0.091
  1544                 JUNCTION      0.00  2705.36     1  08:37           0        3.85       0.094
  1545                 JUNCTION      0.00  2705.49     1  08:35           0        3.85       0.066
  1546                 JUNCTION      5.42  2889.60     1  08:47     0.00671         4.1       0.124
  1547                 JUNCTION      0.00  2885.99     1  08:44           0         4.1       0.093
  1548                 JUNCTION      0.00  2887.13     1  08:41           0        4.11       0.096
  1549                 JUNCTION    211.84  2887.77     1  08:39       0.262        4.11       0.075
  1550                 JUNCTION      0.00  2705.65     1  08:33           0        3.86       0.073
  1551                 JUNCTION      0.00  2705.95     1  08:31           0        3.86       0.106
  1552                 JUNCTION      0.00  2706.61     1  08:28           0        3.86       0.061
  1553                 JUNCTION      0.00  2706.98     1  08:26           0        3.86       0.068
  1554                 JUNCTION      3.43  2707.12     1  08:25     0.00424        3.87       0.056
  1555                 JUNCTION    180.11  2405.60     1  07:59       0.223           3      -5.617
  1556                 JUNCTION      0.00  2457.86     1  07:58           0        3.18      -3.309
  1557                 JUNCTION      0.00  2398.83     1  08:08           0        3.29       0.021
  1558                 JUNCTION      0.00  2419.58     1  08:08           0        3.29       0.024
  1559                 JUNCTION      0.00  2381.92     1  08:09           0        3.29       0.034
  1560                 JUNCTION      0.00  2329.63     1  08:09           0        3.29       0.081
  1561                 JUNCTION      0.00  2280.73     1  08:11           0        3.28       0.100
  1562                 JUNCTION     27.58  2289.33     1  08:21      0.0341        3.32       0.113
  1563                 JUNCTION      0.00  2286.53     1  08:22           0        3.31       0.144
  1564                 JUNCTION      0.00  2392.05     1  08:29           0        3.44       0.038
  1565                 JUNCTION      0.00  2392.09     1  08:28           0        3.44       0.053
  1566                 JUNCTION      0.00  2392.28     1  08:26           0        3.45       0.075
  1567                 JUNCTION      0.00  2392.61     1  08:25           0        3.45       0.059
  1568                 JUNCTION      0.00  2393.03     1  08:23           0        3.45       0.080
  1569                 JUNCTION      0.00  2392.17     1  08:30           0        3.44       0.085
  1570                 JUNCTION      0.00  2704.54     1  08:22           0        3.87       0.068
  1571                 JUNCTION      2.91   346.41     1  08:00      0.0036       0.428       0.181
  1572                 JUNCTION      0.00   344.09     1  08:00           0       0.425       0.097
  1575                 JUNCTION     44.42   131.56     1  08:00       0.055       0.163       0.027
  1576                 JUNCTION      0.00   131.56     1  08:00           0       0.163       0.060
  1577                 JUNCTION      0.00   131.55     1  08:00           0       0.163       0.069
  1578                 JUNCTION      8.82   140.35     1  08:00      0.0109       0.173       0.086
  1579                 JUNCTION      0.00   140.28     1  08:00           0       0.173       0.080
  1580                 JUNCTION      0.00   140.20     1  08:00           0       0.173       0.077
  1581                 JUNCTION     10.65   344.46     1  08:00      0.0132       0.425       0.055
  1582                 JUNCTION      0.00  2976.62     1  09:01           0         4.2       0.042
  1583                 JUNCTION      0.00  2976.78     1  09:01           0         4.2       0.024
  1584                 JUNCTION      0.00  2976.81     1  09:00           0         4.2       0.033
  1585                 JUNCTION     11.35  2977.65     1  09:00       0.014         4.2       0.066
  1586                 JUNCTION      0.00  2976.03     1  09:04           0        4.19       0.091
  1587                 JUNCTION      0.00  2976.21     1  09:02           0        4.19       0.057
  1588                 JUNCTION      0.00  3026.93     1  09:16           0        4.26       0.084
  1589                 JUNCTION     39.58  3027.14     1  09:14       0.049        4.26       0.085
  1590                 JUNCTION      0.00  2999.19     1  09:12           0        4.22       0.039
  1591                 JUNCTION      0.00  2999.27     1  09:11           0        4.22       0.053
  1592                 JUNCTION      0.00  2999.40     1  09:10           0        4.22       0.066
  1593                 JUNCTION      0.00  3026.75     1  09:18           0        4.25       0.090
  1594                 JUNCTION      0.00  3026.37     1  09:20           0        4.25       0.129
  1595                 JUNCTION      0.00  3025.92     1  09:22           0        4.25       0.085
  1596                 JUNCTION     50.17  3060.78     1  09:24      0.0621         4.3       0.079
  1597                 JUNCTION      0.00     0.00     0  00:00           0           0       0.000 gal
  1598                 JUNCTION      0.00  2999.51     1  09:09           0        4.22       0.039
  1599                 JUNCTION      0.00  2999.52     1  09:09           0        4.22       0.016
  16                   JUNCTION      0.00     0.00     0  00:00           0           0       0.000 gal
  1600                 JUNCTION      0.00  2999.50     1  09:08           0        4.23       0.045
  1601                 JUNCTION      0.00  2999.51     1  09:08           0        4.23       0.026
  1602                 JUNCTION     28.43  2999.71     1  09:06      0.0352        4.23       0.073
  1613                 JUNCTION    311.05   431.79     1  07:59       0.385       0.434       0.031
  1614                 JUNCTION      0.00   374.33     1  07:59           0       0.433       0.058
  1615                 JUNCTION      0.00   352.91     1  08:00           0       0.433       0.101
  1616                 JUNCTION      0.00   350.35     1  07:58           0       0.433       0.054
  1617                 JUNCTION      0.00   350.07     1  07:59           0       0.432       0.128
  1618                 JUNCTION      0.00   349.98     1  08:01           0       0.432       0.018
  1619                 JUNCTION      0.00   349.95     1  08:02           0       0.432       0.099
  1620                 JUNCTION      0.00   349.92     1  08:03           0       0.431       0.014
  1621                 JUNCTION      0.00   349.87     1  08:04           0       0.431       0.074
  1622                 JUNCTION      0.00   349.79     1  08:05           0       0.431       0.019
  1639                 JUNCTION      0.00     0.00     0  00:00           0           0       0.000 gal
  1641                 JUNCTION      1.14     1.14     1  07:45     0.00141     0.00141       0.120
  1642                 JUNCTION      0.39    61.14     1  08:00    0.000479      0.0755       0.036
  17                   JUNCTION      0.00     0.00     0  00:00           0           0       0.000 gal
  1712                 JUNCTION      0.00   126.88     1  08:00           0       0.157       0.034
  1714                 JUNCTION     11.62   127.10     1  08:00      0.0144       0.157       0.090
  1715                 JUNCTION      1.12   115.60     1  08:00     0.00139       0.143       0.049
  1716                 JUNCTION      2.31   114.48     1  08:00     0.00286       0.141       0.023
  1717                 JUNCTION      0.47   104.46     1  08:00    0.000582       0.129       0.052
  1719                 JUNCTION     28.16    35.48     1  08:00      0.0349      0.0439       0.067
  172                  JUNCTION      0.00     0.00     0  00:00           0           0       0.000 gal
  1720                 JUNCTION      5.68     7.32     1  08:00     0.00704     0.00906       0.119
  1721                 JUNCTION      1.64     1.64     1  07:45     0.00203     0.00203       0.084
  1722                 JUNCTION      0.00     0.00     0  00:00           0           0       0.000 gal
  1723                 JUNCTION      0.00     0.00     0  00:00           0           0       0.000 gal
  1724                 JUNCTION      0.00     0.00     0  00:00           0           0       0.000 gal
  1729                 JUNCTION      3.45   104.01     1  07:59     0.00427       0.128       0.046
  173                  JUNCTION      0.00    12.82     1  08:00           0      0.0159       0.017
  1730                 JUNCTION      5.68   100.56     1  07:56     0.00703       0.124       0.125
  1731                 JUNCTION      1.19    94.88     1  08:00     0.00147       0.117       0.224
  1732                 JUNCTION     93.69    93.69     1  07:45       0.116       0.116       0.036
  1737                 JUNCTION     11.79    11.79     1  07:45      0.0146      0.0146       0.045
  1738                 JUNCTION      7.44    19.23     1  08:00     0.00921      0.0238       0.169
  1740                 JUNCTION      1.43   638.48     1  08:49     0.00177       0.823       0.094
  1741                 JUNCTION      0.42   190.62     1  08:00    0.000523       0.243       0.019
  1749                 JUNCTION     10.49    26.95     1  08:00       0.013      0.0333       0.086
  175                  JUNCTION      4.55     4.55     1  07:45     0.00563     0.00563       0.334
  1750                 JUNCTION      2.04    16.46     1  08:00     0.00253      0.0203       0.078
  1751                 JUNCTION      1.95    14.42     1  08:00     0.00242      0.0178       0.115
  1752                 JUNCTION     12.46    12.46     1  07:45      0.0154      0.0154       0.076
  1753                 JUNCTION      0.00     0.00     0  00:00           0           0       0.000 gal
  1756                 JUNCTION      0.50    90.80     1  08:00    0.000623       0.113       0.021
  1757                 JUNCTION      5.49    96.25     1  08:00      0.0068        0.12       0.028
  1758                 JUNCTION      0.83    97.02     1  08:00     0.00103       0.121       0.037
  1759                 JUNCTION      1.26    98.20     1  08:00     0.00156       0.122       0.040
  176                  JUNCTION      0.00    12.87     1  08:00           0      0.0159       0.242
  177                  JUNCTION      1.55     6.08     1  08:00     0.00192     0.00753       0.121
  1777                 JUNCTION      0.00     0.00     0  00:00           0           0       0.000 gal
  178                  JUNCTION      6.81    12.89     1  08:00     0.00844       0.016       0.077
  1780                 JUNCTION      0.00     0.00     0  00:00           0           0       0.000 gal
  1781                 JUNCTION      0.00     0.00     0  00:00           0           0       0.000 gal
  1782                 JUNCTION      0.00     0.00     0  00:00           0           0       0.000 gal
  1785                 JUNCTION      0.00   596.04     1  08:00           0       0.739       0.033
  179                  JUNCTION      0.00     0.00     0  00:00           0           0       0.000 gal
  18                   JUNCTION      0.00     0.00     0  00:00           0           0       0.000 gal
  181                  JUNCTION      1.21     2.30     1  08:00     0.00149     0.00284       0.075
  182                  JUNCTION      0.00     0.00     0  00:00           0           0       0.000 gal
[...]
  580                     1.00   0.00  0.00  0.00  1.00  0.00  0.00  0.00  1.00  0.00
  581                     1.00   0.00  0.00  0.00  1.00  0.00  0.00  0.00  0.99  0.00
  582                     1.00   0.00  0.00  0.00  1.00  0.00  0.00  0.00  1.00  0.00
  583                     1.00   0.00  0.00  0.00  1.00  0.00  0.00  0.00  0.99  0.00
  584                     1.00   0.00  0.00  0.00  1.00  0.00  0.00  0.00  1.00  0.00
  585                     1.00   0.00  0.00  0.00  1.00  0.00  0.00  0.00  0.00  0.00
  586                     1.00   0.00  0.00  0.00  1.00  0.00  0.00  0.00  1.00  0.00
  587                     1.00   0.00  0.00  0.00  1.00  0.00  0.00  0.00  0.00  0.00
  599                     1.00   0.02  0.00  0.00  0.98  0.00  0.00  0.00  0.00  0.00
  600                     1.00   0.02  0.00  0.00  0.98  0.00  0.00  0.00  0.97  0.00
  601                     1.00   0.02  0.00  0.00  0.98  0.00  0.00  0.00  0.97  0.00
  602                     1.00   0.03  0.00  0.00  0.97  0.00  0.00  0.00  0.96  0.00
  603                     1.00   0.03  0.00  0.00  0.97  0.00  0.00  0.00  0.00  0.00
  604                     1.00   0.03  0.00  0.00  0.97  0.00  0.00  0.00  0.96  0.00
  605                     1.00   0.03  0.00  0.00  0.97  0.00  0.00  0.00  0.00  0.00
  606                     1.00   0.00  0.03  0.00  0.97  0.00  0.00  0.00  0.96  0.00
  607                     1.00   0.00  0.00  0.00  1.00  0.00  0.00  0.00  0.04  0.00
  608                     1.00   0.00  0.00  0.00  1.00  0.00  0.00  0.00  0.03  0.00
  609                     1.00   0.00  0.00  0.00  0.99  0.00  0.00  0.01  0.00  0.00
  610                     1.00   0.00  0.00  0.00  1.00  0.00  0.00  0.00  0.98  0.00
  647                     1.00   0.00  0.00  0.00  1.00  0.00  0.00  0.00  0.00  0.00
  648                     1.00   0.00  0.00  0.00  1.00  0.00  0.00  0.00  0.00  0.00
  649                     1.00   0.00  0.00  0.00  1.00  0.00  0.00  0.00  1.00  0.00
  65                      1.00   0.00  0.00  0.00  0.00  0.00  0.00  1.00  0.00  0.00
  650                     1.00   0.00  0.00  0.00  0.99  0.00  0.00  0.01  0.00  0.00
  651                     1.00   0.00  0.00  0.00  1.00  0.00  0.00  0.00  1.00  0.00
  657                     1.00   0.00  0.00  0.00  1.00  0.00  0.00  0.00  0.97  0.00
  660                     1.00   1.00  0.00  0.00  0.00  0.00  0.00  0.00  0.00  0.00
  661                     1.00   0.00  0.00  0.00  1.00  0.00  0.00  0.00  0.90  0.00
  662                     1.00   0.00  0.00  0.00  1.00  0.00  0.00  0.00  0.95  0.00
  663                     1.00   0.00  0.01  0.00  0.99  0.00  0.00  0.00  0.99  0.00
  664                     1.00   0.00  0.00  0.00  0.00  0.00  0.00  1.00  0.00  0.00
  665                     1.00   0.00  0.00  0.00  1.00  0.00  0.00  0.00  1.00  0.00
  666                     1.00   0.00  0.01  0.00  0.99  0.00  0.00  0.00  0.99  0.00
  667                     1.00   0.00  0.00  0.00  0.54  0.00  0.00  0.46  0.12  0.00
  669                     1.00   0.00  0.00  0.00  1.00  0.00  0.00  0.00  0.00  0.00
  670                     1.00   0.00  0.00  0.00  1.00  0.00  0.00  0.00  1.00  0.00
  671                     1.00   0.00  0.00  0.00  0.01  0.99  0.00  0.00  0.00  0.00
  672                     1.00   0.00  0.00  0.00  1.00  0.00  0.00  0.00  0.00  0.00
  673                     1.00   0.00  0.00  0.00  1.00  0.00  0.00  0.00  0.99  0.00
  674                     1.00   0.00  0.00  0.00  0.01  0.00  0.00  0.99  0.00  0.00
  680                     1.00   0.00  0.00  0.00  0.69  0.00  0.00  0.30  0.30  0.00
  681                     1.00   0.00  0.00  0.00  1.00  0.00  0.00  0.00  1.00  0.00
  682                     1.00   0.00  0.00  0.00  1.00  0.00  0.00  0.00  0.99  0.00
  683                     1.00   0.00  0.00  0.00  1.00  0.00  0.00  0.00  1.00  0.00
  684                     1.00   0.00  0.00  0.00  1.00  0.00  0.00  0.00  1.00  0.00
  685                     1.00   0.00  0.00  0.00  1.00  0.00  0.00  0.00  0.00  0.00
  686                     1.00   0.00  0.00  0.00  1.00  0.00  0.00  0.00  1.00  0.00
  687                     1.00   0.00  0.00  0.00  1.00  0.00  0.00  0.00  1.00  0.00
  688                     1.00   0.01  0.00  0.00  0.99  0.00  0.00  0.00  0.00  0.00
  689                     1.00   0.00  0.00  0.00  1.00  0.00  0.00  0.00  0.98  0.00
  690                     1.00   0.00  0.00  0.00  1.00  0.00  0.00  0.00  0.98  0.00
  691                     1.00   0.00  0.00  0.00  1.00  0.00  0.00  0.00  0.00  0.00
  692                     1.00   0.00  0.00  0.00  1.00  0.00  0.00  0.00  0.95  0.00
  693                     1.00   0.00  0.00  0.00  1.00  0.00  0.00  0.00  1.00  0.00
  698                     1.00   0.00  0.00  0.00  1.00  0.00  0.00  0.00  0.00  0.00
  699                     1.00   0.00  0.00  0.00  1.00  0.00  0.00  0.00  0.98  0.00
  700                     1.00   0.00  0.00  0.00  0.98  0.00  0.00  0.01  0.36  0.00
  701                     1.00   0.01  0.00  0.00  0.99  0.00  0.00  0.00  0.00  0.00
  702                     1.00   0.01  0.00  0.00  0.98  0.00  0.00  0.01  0.96  0.00
  703                     1.00   0.01  0.00  0.00  0.99  0.00  0.00  0.00  0.04  0.00
  704                     1.00   0.01  0.00  0.00  0.97  0.00  0.00  0.01  0.97  0.00
  705                     1.00   0.01  0.00  0.00  0.99  0.00  0.00  0.00  0.00  0.00
  706                     1.00   0.02  0.00  0.00  0.98  0.00  0.00  0.00  0.97  0.00
  708                     1.00   0.00  0.00  0.00  0.18  0.00  0.00  0.82  0.08  0.00
  714                     1.00   0.00  0.00  0.00  0.08  0.92  0.00  0.00  0.00  0.00
  715                     1.00   0.00  0.00  0.00  0.00  0.00  0.00  1.00  0.00  0.00
  716                     1.00   0.00  0.00  0.00  1.00  0.00  0.00  0.00  0.04  0.00
  717                     1.00   0.00  0.00  0.00  1.00  0.00  0.00  0.00  0.00  0.00
  718                     1.00   0.00  0.00  0.00  1.00  0.00  0.00  0.00  0.98  0.00
  719                     1.00   0.00  0.00  0.00  1.00  0.00  0.00  0.00  0.01  0.00
  720                     1.00   0.00  0.00  0.00  1.00  0.00  0.00  0.00  0.03  0.00
  721                     1.00   0.00  0.02  0.00  0.98  0.00  0.00  0.00  0.98  0.00
  722                     1.00   0.01  0.00  0.00  0.99  0.00  0.00  0.00  0.00  0.00
  723                     1.00   0.01  0.00  0.00  0.99  0.00  0.00  0.00  0.00  0.00
  726                     1.00   0.00  0.00  0.00  1.00  0.00  0.00  0.00  0.06  0.00
  727                     1.00   0.00  0.00  0.00  1.00  0.00  0.00  0.00  1.00  0.00
  728                     1.00   0.00  0.00  0.00  0.00  0.93  0.00  0.07  0.58  0.00
  729                     1.00   0.00  0.01  0.00  0.99  0.00  0.00  0.00  0.98  0.00
  730                     1.00   0.01  0.00  0.00  0.99  0.00  0.00  0.00  0.00  0.00
  731                     1.00   0.01  0.00  0.00  0.99  0.00  0.00  0.00  0.45  0.00
  732                     1.00   0.01  0.00  0.00  0.99  0.00  0.00  0.00  0.62  0.00
  733                     1.00   0.01  0.00  0.00  0.99  0.00  0.00  0.00  0.98  0.00
  734                     1.00   0.00  0.00  0.00  1.00  0.00  0.00  0.00  0.00  0.00
  735                     1.00   0.00  0.00  0.00  0.98  0.00  0.00  0.02  0.00  0.00
  736                     1.00   0.00  0.00  0.00  0.99  0.00  0.00  0.01  0.08  0.00
  737                     1.00   0.00  0.00  0.00  1.00  0.00  0.00  0.00  0.00  0.00
  738                     1.00   0.00  0.00  0.00  1.00  0.00  0.00  0.00  0.94  0.00
  739                     1.00   0.00  0.01  0.00  0.99  0.00  0.00  0.00  0.03  0.00
  740                     1.00   0.01  0.00  0.00  0.99  0.00  0.00  0.00  0.96  0.00
  741                     1.00   0.00  0.00  0.00  1.00  0.00  0.00  0.00  0.00  0.00
  742                     1.00   0.00  0.00  0.00  1.00  0.00  0.00  0.00  0.00  0.00
  743                     1.00   0.00  0.00  0.00  0.96  0.00  0.00  0.04  0.74  0.00
  744                     1.00   0.00  0.00  0.00  1.00  0.00  0.00  0.00  0.02  0.00
  747                     1.00   0.00  0.00  0.00  1.00  0.00  0.00  0.00  0.00  0.00
  748                     1.00   0.00  0.00  0.00  1.00  0.00  0.00  0.00  0.99  0.00
  749                     1.00   0.00  0.00  0.00  1.00  0.00  0.00  0.00  1.00  0.00
  750                     1.00   0.00  0.00  0.00  1.00  0.00  0.00  0.00  0.00  0.00
  751                     1.00   0.00  0.00  0.00  1.00  0.00  0.00  0.00  1.00  0.00
  752                     1.00   0.00  0.00  0.00  1.00  0.00  0.00  0.00  1.00  0.00
  753                     1.00   0.00  0.00  0.00  0.69  0.00  0.00  0.31  0.44  0.00
  754                     1.00   0.00  0.00  0.00  1.00  0.00  0.00  0.00  0.04  0.00
  755                     1.00   0.01  0.00  0.00  0.99  0.00  0.00  0.00  0.00  0.00
  756                     1.00   0.01  0.00  0.00  0.99  0.00  0.00  0.00  0.60  0.00
  757                     1.00   0.01  0.00  0.00  0.99  0.00  0.00  0.00  0.00  0.00
  758                     1.00   0.00  0.00  0.00  1.00  0.00  0.00  0.00  0.00  0.00
  759                     1.00   0.00  0.00  0.00  1.00  0.00  0.00  0.00  0.28  0.00
  760                     1.00   0.00  0.00  0.00  1.00  0.00  0.00  0.00  0.01  0.00
  761                     1.00   0.00  0.00  0.00  1.00  0.00  0.00  0.00  0.02  0.00
  762                     1.00   0.00  0.00  0.00  1.00  0.00  0.00  0.00  0.10  0.00
  763                     1.00   0.00  0.00  0.00  0.99  0.00  0.00  0.00  0.99  0.00
  764                     1.00   0.00  0.00  0.00  0.18  0.82  0.00  0.00  0.00  0.00
  765                     1.00   0.00  0.00  0.00  0.04  0.96  0.00  0.00  0.45  0.00
  766                     1.00   0.00  0.00  0.00  0.00  0.00  0.00  1.00  0.00  0.00
  767                     1.00   0.00  0.00  0.00  0.00  0.00  0.00  1.00  0.00  0.00
  768                     1.00   0.00  0.00  0.00  0.00  0.00  0.00  1.00  0.00  0.00
  769                     1.00   0.00  0.00  0.00  0.23  0.00  0.00  0.77  0.03  0.00
  770                     1.00   0.00  0.00  0.00  0.00  0.00  0.00  1.00  0.00  0.00
  774                     1.00   0.00  0.00  0.00  1.00  0.00  0.00  0.00  0.00  0.00
  775                     1.00   0.00  0.00  0.00  0.64  0.00  0.00  0.36  0.00  0.00
  776                     1.00   0.00  0.00  0.00  1.00  0.00  0.00  0.00  1.00  0.00
  777                     1.00   0.00  0.00  0.00  0.00  0.00  0.00  1.00  0.00  0.00
  778                     1.00   0.00  0.00  0.00  0.00  0.00  0.00  1.00  0.00  0.00
  779                     1.00   0.00  0.00  0.00  0.00  0.00  0.00  1.00  0.00  0.00
  781                     1.00   0.00  0.00  0.00  0.00  0.00  0.00  1.00  0.00  0.00
  783                     1.00   0.00  0.00  0.00  1.00  0.00  0.00  0.00  1.00  0.00
  784                     1.00   0.00  0.00  0.00  1.00  0.00  0.00  0.00  0.99  0.00
  79                      1.00   0.07  0.93  0.00  0.00  0.00  0.00  0.00  0.00  0.00
  792                     1.00   0.00  0.00  0.00  1.00  0.00  0.00  0.00  0.00  0.00
  793                     1.00   0.00  0.00  0.00  1.00  0.00  0.00  0.00  0.00  0.00
  794                     1.00   0.00  0.00  0.00  1.00  0.00  0.00  0.00  1.00  0.00
  795                     1.00   0.00  0.00  0.00  1.00  0.00  0.00  0.00  0.00  0.00
  796                     1.00   0.00  0.00  0.00  0.00  0.00  0.00  1.00  0.00  0.00
  797                     1.00   0.00  0.00  0.00  0.28  0.72  0.00  0.00  0.17  0.00
  80                      1.00   1.00  0.00  0.00  0.00  0.00  0.00  0.00  0.00  0.00
  81                      1.00   1.00  0.00  0.00  0.00  0.00  0.00  0.00  0.00  0.00
  825                     1.00   0.00  0.00  0.00  0.99  0.00  0.00  0.01  0.99  0.00
  826                     1.00   0.00  0.00  0.00  1.00  0.00  0.00  0.00  0.01  0.00
  827                     1.00   0.00  0.00  0.00  1.00  0.00  0.00  0.00  0.99  0.00
  828                     1.00   0.00  0.00  0.00  0.00  0.00  0.00  1.00  0.00  0.00
  829                     1.00   0.00  0.00  0.00  0.43  0.00  0.00  0.57  0.00  0.00
  830                     1.00   0.00  0.00  0.00  1.00  0.00  0.00  0.00  0.00  0.00
  831                     1.00   0.00  0.00  0.00  1.00  0.00  0.00  0.00  0.81  0.00
  832                     1.00   0.00  0.00  0.00  0.00  0.00  0.00  1.00  0.00  0.00
  833                     1.00   0.00  0.00  0.00  1.00  0.00  0.00  0.00  0.01  0.00
  834                     1.00   0.00  0.00  0.00  0.00  0.99  0.00  0.01  0.99  0.00
  838                     1.00   0.00  0.01  0.00  0.00  0.00  0.99  0.00  0.00  0.00
  839                     1.00   0.00  0.00  0.00  1.00  0.00  0.00  0.00  0.99  0.00
  84                      1.00   0.00  0.00  0.00  0.94  0.06  0.00  0.00  0.64  0.00
  840                     1.00   0.00  0.00  0.00  0.96  0.00  0.00  0.04  0.00  0.00
  841                     1.00   0.00  0.00  0.00  1.00  0.00  0.00  0.00  0.98  0.00
  842                     1.00   0.00  0.00  0.00  1.00  0.00  0.00  0.00  1.00  0.00
  85                      2.26   1.00  0.00  0.00  0.00  0.00  0.00  0.00  0.00  0.00
  86                      1.00   0.00  1.00  0.00  0.00  0.00  0.00  0.00  0.00  0.00
  87                      1.00   0.00  1.00  0.00  0.00  0.00  0.00  0.00  0.00  0.00
  88                      1.00   1.00  0.00  0.00  0.00  0.00  0.00  0.00  0.00  0.00
  888                     1.00   0.00  0.01  0.00  0.99  0.00  0.00  0.00  0.99  0.00
  89                      1.00   0.00  0.00  0.00  0.00  0.00  0.00  1.00  0.00  0.00
  894                     1.00   0.00  0.00  0.00  1.00  0.00  0.00  0.00  1.00  0.00
  895                     1.00   0.00  0.00  0.00  0.00  0.16  0.00  0.84  0.16  0.00
  896                     1.00   0.00  0.00  0.00  0.74  0.00  0.00  0.26  0.00  0.00
  897                     1.00   0.00  0.00  0.00  0.96  0.04  0.00  0.00  0.71  0.00
  898                     1.00   0.00  0.00  0.00  0.00  0.00  0.00  1.00  0.00  0.00
  899                     1.00   0.00  0.00  0.00  1.00  0.00  0.00  0.00  1.00  0.00
  8IN_TO_MH1078           1.00   0.00  0.00  0.00  0.00  1.00  0.00  0.00  0.00  0.00
  8IN_TO_MH1092           1.00   0.00  0.00  0.00  0.00  1.00  0.00  0.00  0.98  0.00
  8IN_TO_MH1263           1.00   0.00  0.00  0.00  1.00  0.00  0.00  0.00  1.00  0.00
  9                       1.00   1.00  0.00  0.00  0.00  0.00  0.00  0.00  0.00  0.00
  90                      1.00   0.00  0.00  0.00  0.00  0.00  0.00  1.00  0.00  0.00
  900                     1.00   0.00  0.00  0.00  0.00  0.00  0.00  1.00  0.00  0.00
  909                     1.00   0.00  0.00  0.00  0.03  0.97  0.00  0.00  0.00  0.00
  91                      1.00   0.00  0.00  0.00  1.00  0.00  0.00  0.00  0.79  0.00
  910                     1.00   0.00  0.00  0.00  1.00  0.00  0.00  0.00  0.99  0.00
  911                     1.00   0.00  0.00  0.00  0.07  0.93  0.00  0.00  0.00  0.00
  912                     1.00   0.00  0.00  0.00  0.00  1.00  0.00  0.00  0.00  0.00
  932                     1.00   0.00  0.00  0.00  0.00  0.99  0.00  0.00  0.00  0.00
  933                     1.00   0.00  0.00  0.00  0.00  0.00  0.00  1.00  0.00  0.00
  934                     1.00   0.00  0.00  0.00  0.99  0.00  0.00  0.01  0.82  0.00
  935                     1.00   0.00  0.00  0.00  0.00  0.00  0.00  1.00  0.00  0.00
  936                     1.00   0.00  0.00  0.00  0.99  0.00  0.00  0.00  0.97  0.00
  937                     1.00   0.00  0.00  0.00  0.99  0.01  0.00  0.00  0.99  0.00
  938                     1.00   0.00  0.00  0.00  1.00  0.00  0.00  0.00  0.00  0.00
  939                     1.00   0.00  0.00  0.00  0.74  0.26  0.00  0.00  0.45  0.00
  942                     1.00   0.00  0.00  0.00  0.00  0.00  0.00  1.00  0.00  0.00
  956                     1.00   0.00  0.00  0.00  0.56  0.44  0.00  0.00  0.00  0.00
  957                     1.00   0.00  0.00  0.00  0.25  0.00  0.00  0.75  0.00  0.00
  958                     1.00   0.00  0.00  0.00  0.00  0.00  0.00  1.00  0.00  0.00
  990                     1.00   0.00  0.00  0.00  0.00  0.00  0.00  1.00  0.00  0.00
  991                     1.00   0.00  0.00  0.00  1.00  0.00  0.00  0.00  0.00  0.00
  992                     1.00   0.00  0.00  0.00  1.00  0.00  0.00  0.00  0.00  0.00
  CDT-11                  1.00   0.00  0.00  0.00  0.92  0.08  0.00  0.00  0.97  0.00
  NON_MOD_8IN_1500        1.00   0.00  0.00  0.00  0.65  0.35  0.00  0.00  0.77  0.00
  NON_MOD_8IN_1524        1.00   0.00  0.00  0.00  0.00  0.00  0.00  1.00  0.00  0.00
  NON_MOD_8IN_FROM_LS7    1.00   0.00  0.06  0.00  0.94  0.00  0.00  0.00  0.93  0.00
  NON_MOD_8IN_FROM_LS8    1.00   0.00  1.00  0.00  0.00  0.00  0.00  0.00  0.00  0.00
  NON_MOD_8IN_FROM_MH1092    1.00   0.00  0.00  0.00  0.00  1.00  0.00  0.00  0.98  0.00
  NON_MOD_8IN_TO_LS9      1.00   0.01  0.00  0.00  0.00  0.00  0.00  0.99  0.00  0.00
  NON_MOD_8IN_TO_MH1480    1.00   0.00  0.00  0.00  0.99  0.01  0.00  0.00  0.01  0.00
  NON_MOD_SMALL_SEGMENT    1.25   0.00  0.00  0.00  0.00  1.00  0.00  0.00  0.11  0.00
  TO_OFALL                1.00   0.02  0.00  0.00  0.98  0.00  0.00  0.00  0.00  0.00
  
  
  *************************
  Conduit Surcharge Summary
  *************************
  
  ----------------------------------------------------------------------------
                                                           Hours        Hours 
                         --------- Hours Full --------   Above Full   Capacity
  Conduit                Both Ends  Upstream  Dnstream   Normal Flow   Limited
  ----------------------------------------------------------------------------
  1611                        0.01      0.01      0.01      3.46         0.01
  1907                        0.01      0.01      0.01     40.08         0.01
  734                         0.01      0.01      0.01      3.19         0.01
  742                         0.01      0.01      0.01      4.37         0.01
  755                         0.01      0.01      0.01      3.07         0.01
  TO_OFALL                    0.01      4.56      0.01     45.20         0.01
  
  
  ***************
  Pumping Summary
  ***************
  
  ---------------------------------------------------------------------------------------------------------
                                                  Min       Avg       Max     Total     Power    % Time Off
                        Percent   Number of      Flow      Flow      Flow    Volume     Usage    Pump Curve
  Pump                 Utilized   Start-Ups       GPM       GPM       GPM  10^6 gal     Kw-hr    Low   High
  ---------------------------------------------------------------------------------------------------------
  6IN_LS8                  0.00           0      0.00      0.00      0.00     0.000      0.00    0.0    0.0
  LS10_16IN                0.00           0      0.00      0.00      0.00     0.000      0.00    0.0    0.0
  LS1_P1                  11.24         828      0.00   1294.73   1800.00     0.418   1306.64    0.0    0.0
  LS1_P2                  71.88        2872      0.00   2700.00   2700.00     5.589  17437.87    0.0    0.0
  LS3_6IN                 42.29        1222      0.00    400.00    400.00     0.487     57.11    0.0    0.0
  LS4                     43.01        4355      0.00   1240.00   1240.00     1.536    118.53    0.0    0.0
  LS7_8IN                  2.28          77      0.00    236.90    236.90     0.016      1.10    0.0    0.0
  LS9_8IN                 28.82        1266      0.00    188.02    188.02     0.156      4.90    0.0    0.0
  LS_12IN_ACTUAL          29.25        2389      0.00   1421.89   1421.89     1.198    128.98    0.0    0.0
  NON_MOD_12IN_1555       42.22        1517      0.00    960.00    960.00     1.167     90.77    0.0    0.0
  

  Analysis begun on:  Wed Jun 24 00:50:31 2026
  Analysis ended on:  Wed Jun 24 00:50:57 2026
  Total elapsed time: 00:00:26