
  EPA STORM WATER MANAGEMENT MODEL - VERSION 5.2 (Build 5.2.4)
  ------------------------------------------------------------

  WARNING 02: maximum depth increased for Node T35-32
  WARNING 02: maximum depth increased for Node T35-33
  WARNING 02: maximum depth increased for Node T35-34
  WARNING 02: maximum depth increased for Node T35-35
  WARNING 02: maximum depth increased for Node T35-36
  WARNING 02: maximum depth increased for Node T35-37
  WARNING 02: maximum depth increased for Node T35-38
  WARNING 02: maximum depth increased for Node T35-39
  WARNING 02: maximum depth increased for Node T35-40
  WARNING 02: maximum depth increased for Node T35-41
  WARNING 02: maximum depth increased for Node T35-42
  WARNING 02: maximum depth increased for Node T35-43
  WARNING 02: maximum depth increased for Node T35-44
  WARNING 02: maximum depth increased for Node T35-45
  WARNING 02: maximum depth increased for Node T35-46
  WARNING 02: maximum depth increased for Node T35-47
  WARNING 02: maximum depth increased for Node T35-48
  WARNING 02: maximum depth increased for Node T35-49
  WARNING 02: maximum depth increased for Node T35-50
  WARNING 02: maximum depth increased for Node T35-51
  WARNING 02: maximum depth increased for Node T35-52
  WARNING 02: maximum depth increased for Node T35-53
  WARNING 02: maximum depth increased for Node T35-54
  WARNING 02: maximum depth increased for Node T35-55
  WARNING 02: maximum depth increased for Node T35-56
  WARNING 02: maximum depth increased for Node T35-57
  
  ****************
  Analysis Options
  ****************
  Flow Units ............... LPS
  Process Models:
    Rainfall/Runoff ........ YES
    RDII ................... NO
    Snowmelt ............... NO
    Groundwater ............ NO
    Flow Routing ........... YES
    Ponding Allowed ........ NO
    Water Quality .......... NO
  Infiltration Method ...... CURVE_NUMBER
  Flow Routing Method ...... DYNWAVE
  Surcharge Method ......... EXTRAN
  Starting Date ............ 01/01/2017 00:00:00
  Ending Date .............. 01/03/2017 00:00:00
  Antecedent Dry Days ...... 0.0
  Report Time Step ......... 00:01:00
  Wet Time Step ............ 00:05:00
  Dry Time Step ............ 01:00:00
  Routing Time Step ........ 1.00 sec
  Variable Time Step ....... YES
  Maximum Trials ........... 8
  Number of Threads ........ 1
  Head Tolerance ........... 0.000100 m
  
  
  **************************        Volume         Depth
  Runoff Quantity Continuity     hectare-m            mm
  **************************     ---------       -------
  Total Precipitation ......        33.757       194.173
  Evaporation Loss .........         0.000         0.000
  Infiltration Loss ........         3.767        21.665
  Surface Runoff ...........        29.803       171.429
  Final Storage ............         0.251         1.446
  Continuity Error (%) .....        -0.189
  
  
  **************************        Volume        Volume
  Flow Routing Continuity        hectare-m      10^6 ltr
  **************************     ---------     ---------
  Dry Weather Inflow .......         0.000         0.000
  Wet Weather Inflow .......        29.803       298.036
  Groundwater Inflow .......         0.000         0.000
  RDII Inflow ..............         0.000         0.000
  External Inflow ..........        22.171       221.713
  External Outflow .........        51.974       519.746
  Flooding Loss ............         0.000         0.000
  Evaporation Loss .........         0.000         0.000
  Exfiltration Loss ........         0.000         0.000
  Initial Stored Volume ....         0.000         0.000
  Final Stored Volume ......         0.000         0.003
  Continuity Error (%) .....         0.000
  
  
  ***************************
  Time-Step Critical Elements
  ***************************
  None
  
  
  ********************************
  Highest Flow Instability Indexes
  ********************************
  All links are stable.
  
  
  *********************************
  Most Frequent Nonconverging Nodes
  *********************************
  Node T35-57 (0.01%)
  Node T35-58 (0.01%)
  Node T35-56 (0.00%)
  
  
  *************************
  Routing Time Step Summary
  *************************
  Minimum Time Step           :     0.88 sec
  Average Time Step           :     1.00 sec
  Maximum Time Step           :     1.00 sec
  % of Time in Steady State   :     0.00
  Average Iterations per Step :     2.00
  % of Steps Not Converging   :     0.01
  Time Step Frequencies       :
      1.000 -  0.251 sec      :   100.00 %
      0.251 -  0.063 sec      :     0.00 %
      0.063 -  0.016 sec      :     0.00 %
      0.016 -  0.004 sec      :     0.00 %
      0.004 -  0.001 sec      :     0.00 %
  
  
  ***************************
  Subcatchment Runoff Summary
  ***************************
  
  ------------------------------------------------------------------------------------------------------------------------------
                            Total      Total      Total      Total     Imperv       Perv      Total       Total     Peak  Runoff
                           Precip      Runon       Evap      Infil     Runoff     Runoff     Runoff      Runoff   Runoff   Coeff
  Subcatchment                 mm         mm         mm         mm         mm         mm         mm    10^6 ltr      LPS
  ------------------------------------------------------------------------------------------------------------------------------
  35AV-04                  194.17       0.00       0.00      17.48     155.39     175.87     175.87       45.34  8637.61   0.906
  35AV-08                  194.17       0.00       0.00      19.55     123.33     173.25     173.25       45.48  8222.75   0.892
  35AV-09                  194.17       0.00       0.00      21.40     140.18     171.92     171.92       56.80  9593.29   0.885
  35AV-10                  194.17       0.00       0.00      29.87      64.98     161.66     161.66       28.15  4390.17   0.833
  35AV-13                  194.17       0.00       0.00      20.40     140.22     173.04     173.04       34.38  7148.65   0.891
  35AV-15                  194.17       0.00       0.00      22.72     122.52     170.64     170.64       87.88 17384.49   0.879
  
  
  ******************
  Node Depth Summary
  ******************
  
  ---------------------------------------------------------------------------------
                                 Average  Maximum  Maximum  Time of Max    Reported
                                   Depth    Depth      HGL   Occurrence   Max Depth
  Node                 Type       Meters   Meters   Meters  days hr:min      Meters
  ---------------------------------------------------------------------------------
  T35-01               JUNCTION     0.14     2.91   134.26     0  12:23        2.91
  T35-02               JUNCTION     0.14     2.92   133.14     0  12:23        2.92
  T35-03               JUNCTION     0.15     2.92   132.02     0  12:23        2.92
  T35-04               JUNCTION     0.15     2.93   130.92     0  12:23        2.93
  T35-05               JUNCTION     0.14     2.92   129.81     0  12:23        2.92
  T35-06               JUNCTION     0.15     2.93   128.70     0  12:23        2.93
  T35-07               JUNCTION     0.14     2.91   127.58     0  12:23        2.91
  T35-08               JUNCTION     0.15     2.92   126.46     0  12:23        2.92
  T35-09               JUNCTION     0.14     2.93   125.36     0  12:23        2.93
  T35-10               JUNCTION     0.14     2.91   124.23     0  12:23        2.91
  T35-11               JUNCTION     0.14     2.92   123.11     0  12:23        2.92
  T35-12               JUNCTION     0.15     2.93   122.00     0  12:23        2.93
  T35-13               JUNCTION     0.14     2.92   120.89     0  12:23        2.92
  T35-14               JUNCTION     0.14     2.92   119.77     0  12:23        2.91
  T35-15               JUNCTION     0.15     2.92   118.65     0  12:23        2.92
  T35-16               JUNCTION     0.14     2.91   117.53     0  12:23        2.91
  T35-17               JUNCTION     0.14     2.91   116.40     0  12:23        2.91
  T35-18               JUNCTION     0.15     2.92   115.28     0  12:23        2.92
  T35-19               JUNCTION     0.14     2.92   114.17     0  12:23        2.91
  T35-20               JUNCTION     0.15     2.93   113.06     0  12:23        2.93
  T35-21               JUNCTION     0.14     2.91   111.94     0  12:23        2.91
  T35-22               JUNCTION     0.15     2.93   110.83     0  12:23        2.93
  T35-23               JUNCTION     0.14     2.91   109.71     0  12:23        2.91
  T35-24               JUNCTION     0.14     2.92   108.59     0  12:23        2.92
  T35-25               JUNCTION     0.15     2.94   107.49     0  12:23        2.94
  T35-26               JUNCTION     0.14     2.81   106.28     0  12:23        2.81
  T35-27               JUNCTION     0.14     2.89   105.07     0  12:24        2.89
  T35-28               JUNCTION     0.14     2.88   103.89     0  12:24        2.88
  T35-29               JUNCTION     0.14     2.90   102.73     0  12:24        2.90
  T35-30               JUNCTION     0.13     2.59   101.27     0  12:30        2.56
  T35-31               JUNCTION     0.16     2.97   101.47     0  12:25        2.97
  T35-32               JUNCTION     0.16     2.93   100.13     0  12:25        2.93
  T35-33               JUNCTION     0.15     2.77    98.61     0  12:26        2.77
  T35-34               JUNCTION     0.15     2.72    96.87     0  12:26        2.72
  T35-35               JUNCTION     0.15     2.72    95.04     0  12:26        2.72
  T35-36               JUNCTION     0.15     2.79    93.31     0  12:26        2.79
  T35-37               JUNCTION     0.15     2.82    91.70     0  12:27        2.82
  T35-38               JUNCTION     0.15     2.79    90.10     0  12:27        2.79
  T35-39               JUNCTION     0.18     3.26    88.93     0  12:29        3.26
  T35-40               JUNCTION     0.18     3.22    87.51     0  12:29        3.22
  T35-41               JUNCTION     0.18     3.28    86.12     0  12:29        3.28
  T35-42               JUNCTION     0.17     3.19    84.68     0  12:29        3.19
  T35-43               JUNCTION     0.19     3.49    83.47     0  12:30        3.49
  T35-44               JUNCTION     0.19     3.39    81.95     0  12:30        3.39
  T35-45               JUNCTION     0.19     3.41    80.35     0  12:30        3.41
  T35-46               JUNCTION     0.19     3.47    78.84     0  12:30        3.46
  T35-47               JUNCTION     0.20     3.55    77.46     0  12:30        3.55
  T35-48               JUNCTION     0.19     3.47    76.07     0  12:30        3.47
  T35-49               JUNCTION     0.19     3.50    74.64     0  12:31        3.50
  T35-50               JUNCTION     0.20     3.61    73.35     0  12:31        3.60
  T35-51               JUNCTION     0.21     3.70    71.67     0  12:31        3.70
  T35-52               JUNCTION     0.21     3.76    70.19     0  12:31        3.76
  T35-53               JUNCTION     0.21     3.72    68.74     0  12:31        3.72
  T35-54               JUNCTION     0.21     3.67    67.19     0  12:32        3.67
  T35-55               JUNCTION     0.21     3.62    65.54     0  12:32        3.62
  T35-56               JUNCTION     0.21     3.69    63.89     0  12:34        3.69
  T35-57               JUNCTION     0.18     3.15    60.79     0  12:32        3.10
  T35-58               OUTFALL      0.18     3.15    55.99     0  12:32        3.09
  
  
  *******************
  Node Inflow Summary
  *******************
  
  -------------------------------------------------------------------------------------------------
                                  Maximum  Maximum                  Lateral       Total        Flow
                                  Lateral    Total  Time of Max      Inflow      Inflow     Balance
                                   Inflow   Inflow   Occurrence      Volume      Volume       Error
  Node                 Type           LPS      LPS  days hr:min    10^6 ltr    10^6 ltr     Percent
  -------------------------------------------------------------------------------------------------
  T35-01               JUNCTION  48499.31 48499.31     0  12:23         222         222      -0.000
  T35-02               JUNCTION      0.00 48496.71     0  12:23           0         222       0.000
  T35-03               JUNCTION      0.00 48495.25     0  12:23           0         222       0.000
  T35-04               JUNCTION      0.00 48494.16     0  12:23           0         222       0.000
  T35-05               JUNCTION      0.00 48493.43     0  12:23           0         222       0.000
  T35-06               JUNCTION      0.00 48492.43     0  12:23           0         222       0.000
  T35-07               JUNCTION      0.00 48491.83     0  12:23           0         222       0.000
  T35-08               JUNCTION      0.00 48490.91     0  12:23           0         222       0.000
  T35-09               JUNCTION      0.00 48490.31     0  12:23           0         222       0.000
  T35-10               JUNCTION      0.00 48489.84     0  12:23           0         222       0.000
  T35-11               JUNCTION      0.00 48489.05     0  12:23           0         222       0.000
  T35-12               JUNCTION      0.00 48488.50     0  12:23           0         222       0.000
  T35-13               JUNCTION      0.00 48488.04     0  12:23           0         222       0.000
  T35-14               JUNCTION      0.00 48487.49     0  12:23           0         222       0.000
  T35-15               JUNCTION      0.00 48486.88     0  12:23           0         222       0.000
  T35-16               JUNCTION      0.00 48486.44     0  12:23           0         222       0.000
  T35-17               JUNCTION      0.00 48485.83     0  12:23           0         222       0.000
  T35-18               JUNCTION      0.00 48485.32     0  12:23           0         222       0.000
  T35-19               JUNCTION      0.00 48484.88     0  12:23           0         222       0.000
  T35-20               JUNCTION      0.00 48484.40     0  12:23           0         222      -0.000
  T35-21               JUNCTION      0.00 48484.07     0  12:23           0         222       0.000
  T35-22               JUNCTION      0.00 48483.50     0  12:23           0         222       0.000
  T35-23               JUNCTION      0.00 48483.18     0  12:23           0         222       0.000
  T35-24               JUNCTION      0.00 48482.66     0  12:23           0         222       0.000
  T35-25               JUNCTION      0.00 48482.28     0  12:23           0         222      -0.000
  T35-26               JUNCTION      0.00 48482.11     0  12:23           0         222       0.000
  T35-27               JUNCTION      0.00 48479.27     0  12:23           0         222       0.000
  T35-28               JUNCTION      0.00 48478.47     0  12:24           0         222       0.000
  T35-29               JUNCTION      0.00 48477.56     0  12:24           0         222       0.000
  T35-30               JUNCTION      0.00 48477.04     0  12:24           0         222       0.000
  T35-31               JUNCTION  17384.49 61431.59     0  12:25        87.9         310      -0.000
  T35-32               JUNCTION      0.00 61431.79     0  12:25           0         310       0.000
  T35-33               JUNCTION      0.00 61431.13     0  12:25           0         310       0.000
  T35-34               JUNCTION      0.00 61426.31     0  12:26           0         310       0.000
  T35-35               JUNCTION      0.00 61418.17     0  12:26           0         310       0.000
  T35-36               JUNCTION      0.00 61409.40     0  12:26           0         310       0.000
  T35-37               JUNCTION      0.00 61403.95     0  12:26           0         310       0.000
  T35-38               JUNCTION      0.00 61399.85     0  12:27           0         310       0.000
  T35-39               JUNCTION  11483.04 71628.72     0  12:28        62.5         372       0.000
  T35-40               JUNCTION      0.00 71628.47     0  12:29           0         372       0.000
  T35-41               JUNCTION      0.00 71627.00     0  12:29           0         372       0.000
  T35-42               JUNCTION      0.00 71626.31     0  12:29           0         372       0.000
  T35-43               JUNCTION   8222.75 79384.52     0  12:30        45.5         418       0.000
  T35-44               JUNCTION      0.00 79372.67     0  12:30           0         418       0.000
  T35-45               JUNCTION      0.00 79358.22     0  12:30           0         418       0.000
  T35-46               JUNCTION      0.00 79347.68     0  12:30           0         418       0.000
  T35-47               JUNCTION      0.00 79341.44     0  12:30           0         418       0.000
  T35-48               JUNCTION      0.00 79339.04     0  12:30           0         418       0.000
  T35-49               JUNCTION      0.00 79332.97     0  12:30           0         418       0.000
  T35-50               JUNCTION   9593.29 88068.55     0  12:31        56.8         474       0.000
  T35-51               JUNCTION      0.00 88046.68     0  12:31           0         474       0.000
  T35-52               JUNCTION      0.00 88037.71     0  12:31           0         474       0.000
  T35-53               JUNCTION      0.00 88033.49     0  12:31           0         474       0.000
  T35-54               JUNCTION      0.00 88026.02     0  12:31           0         474       0.000
  T35-55               JUNCTION      0.00 88014.76     0  12:32           0         474       0.000
  T35-56               JUNCTION   8637.61 96116.61     0  12:32        45.3         520       0.000
  T35-57               JUNCTION      0.00108901.73     0  12:31           0         520      -0.000
  T35-58               OUTFALL       0.00101993.47     0  12:32           0         520       0.000
  
  
  **********************
  Node Surcharge Summary
  **********************
  
  No nodes were surcharged.
  
  
  *********************
  Node Flooding Summary
  *********************
  
  No nodes were flooded.
  
  
  ***********************
  Outfall Loading Summary
  ***********************
  
  -----------------------------------------------------------
                         Flow       Avg       Max       Total
                         Freq      Flow      Flow      Volume
  Outfall Node           Pcnt       LPS       LPS    10^6 ltr
  -----------------------------------------------------------
  T35-58                95.75   3189.89 101993.47     519.744
  -----------------------------------------------------------
  System                95.75   3189.89 101993.47     519.744
  
  
  ********************
  Link Flow Summary
  ********************
  
  -----------------------------------------------------------------------------
                                 Maximum  Time of Max   Maximum    Max/    Max/
                                  |Flow|   Occurrence   |Veloc|    Full    Full
  Link                 Type          LPS  days hr:min     m/sec    Flow   Depth
  -----------------------------------------------------------------------------
  Tu35-01              CONDUIT  48496.71     0  12:23      5.19    0.76    0.76
  Tu35-02              CONDUIT  48495.25     0  12:23      5.17    0.77    0.77
  Tu35-03              CONDUIT  48494.16     0  12:23      5.14    0.78    0.77
  Tu35-04              CONDUIT  48493.43     0  12:23      5.14    0.78    0.77
  Tu35-05              CONDUIT  48492.43     0  12:23      5.15    0.78    0.77
  Tu35-06              CONDUIT  48491.83     0  12:23      5.11    0.79    0.78
  Tu35-07              CONDUIT  48490.91     0  12:23      5.19    0.76    0.76
  Tu35-08              CONDUIT  48490.31     0  12:23      5.14    0.78    0.77
  Tu35-09              CONDUIT  48489.84     0  12:23      5.19    0.76    0.76
  Tu35-10              CONDUIT  48489.05     0  12:23      5.19    0.76    0.76
  Tu35-11              CONDUIT  48488.50     0  12:23      5.17    0.77    0.77
  Tu35-12              CONDUIT  48488.04     0  12:23      5.11    0.79    0.78
  Tu35-13              CONDUIT  48487.49     0  12:23      5.17    0.77    0.77
  Tu35-14              CONDUIT  48486.88     0  12:23      5.15    0.78    0.77
  Tu35-15              CONDUIT  48486.44     0  12:23      5.14    0.78    0.77
  Tu35-16              CONDUIT  48485.83     0  12:23      5.19    0.76    0.76
  Tu35-17              CONDUIT  48485.32     0  12:23      5.19    0.76    0.76
  Tu35-18              CONDUIT  48484.88     0  12:23      5.14    0.78    0.77
  Tu35-19              CONDUIT  48484.40     0  12:23      5.15    0.78    0.77
  Tu35-20              CONDUIT  48484.07     0  12:23      5.14    0.78    0.77
  Tu35-21              CONDUIT  48483.50     0  12:23      5.15    0.78    0.77
  Tu35-22              CONDUIT  48483.18     0  12:23      5.11    0.79    0.78
  Tu35-23              CONDUIT  48482.66     0  12:23      5.17    0.77    0.77
  Tu35-24              CONDUIT  48482.28     0  12:23      5.17    0.77    0.77
  Tu35-25              CONDUIT  48482.11     0  12:23      5.10    0.79    0.78
  Tu35-26              CONDUIT  48479.27     0  12:23      5.27    0.77    0.75
  Tu35-27              CONDUIT  48478.47     0  12:24      5.20    0.77    0.76
  Tu35-28              CONDUIT  48477.56     0  12:24      5.21    0.77    0.76
  Tu35-29              CONDUIT  48477.04     0  12:24      5.20    0.77    0.76
  Tu35-30              CONDUIT  48476.86     0  12:24      5.16    0.78    0.78
  Tu35-31              CONDUIT  61431.79     0  12:25      5.49    0.65    0.67
  Tu35-32              CONDUIT  61431.13     0  12:25      5.52    0.65    0.66
  Tu35-33              CONDUIT  61426.31     0  12:26      5.71    0.64    0.64
  Tu35-34              CONDUIT  61418.17     0  12:26      5.76    0.65    0.63
  Tu35-35              CONDUIT  61409.40     0  12:26      5.75    0.64    0.64
  Tu35-36              CONDUIT  61403.95     0  12:26      5.68    0.64    0.64
  Tu35-37              CONDUIT  61399.85     0  12:27      5.65    0.64    0.65
  Tu35-38              CONDUIT  61394.03     0  12:27      5.69    0.64    0.64
  Tu35-39              CONDUIT  71628.47     0  12:29      5.76    0.75    0.74
  Tu35-40              CONDUIT  71627.00     0  12:29      5.81    0.75    0.73
  Tu35-41              CONDUIT  71626.31     0  12:29      5.76    0.75    0.74
  Tu35-42              CONDUIT  71624.34     0  12:29      5.83    0.75    0.73
  Tu35-43              CONDUIT  79372.67     0  12:30      5.94    0.83    0.80
  Tu35-44              CONDUIT  79358.22     0  12:30      6.03    0.83    0.78
  Tu35-45              CONDUIT  79347.68     0  12:30      6.01    0.83    0.79
  Tu35-46              CONDUIT  79341.44     0  12:30      5.95    0.83    0.79
  Tu35-47              CONDUIT  79339.04     0  12:30      5.86    0.84    0.80
  Tu35-48              CONDUIT  79332.97     0  12:30      5.95    0.83    0.79
  Tu35-49              CONDUIT  79328.98     0  12:31      5.94    0.83    0.79
  Tu35-50              CONDUIT  88046.68     0  12:31      6.22    0.92    0.84
  Tu35-51              CONDUIT  88037.71     0  12:31      6.14    0.92    0.85
  Tu35-52              CONDUIT  88033.49     0  12:31      6.10    0.92    0.86
  Tu35-53              CONDUIT  88026.02     0  12:31      6.11    0.93    0.86
  Tu35-54              CONDUIT  88014.76     0  12:32      6.16    0.92    0.85
  Tu35-55              CONDUIT  87996.14     0  12:32      6.20    0.92    0.84
  Tu35-56              CONDUIT 108901.73     0  12:31      6.93    1.14    0.94
  Tu35-57              CONDUIT 101993.47     0  12:32      7.91    0.87    0.77
  
  
  ***************************
  Flow Classification Summary
  ***************************
  
  -------------------------------------------------------------------------------------
                      Adjusted    ---------- Fraction of Time in Flow Class ---------- 
                       /Actual         Up    Down  Sub   Sup   Up    Down  Norm  Inlet 
  Conduit               Length    Dry  Dry   Dry   Crit  Crit  Crit  Crit  Ltd   Ctrl  
  -------------------------------------------------------------------------------------
  Tu35-01                 1.00   0.50  0.00  0.00  0.00  0.00  0.00  0.50  0.00  0.00
  Tu35-02                 1.00   0.48  0.00  0.00  0.00  0.00  0.00  0.52  0.00  0.00
  Tu35-03                 1.00   0.47  0.00  0.00  0.00  0.00  0.00  0.53  0.00  0.00
  Tu35-04                 1.00   0.46  0.00  0.00  0.00  0.00  0.00  0.54  0.00  0.00
  Tu35-05                 1.00   0.44  0.00  0.00  0.00  0.00  0.00  0.56  0.00  0.00
  Tu35-06                 1.00   0.43  0.00  0.00  0.00  0.00  0.00  0.57  0.00  0.00
  Tu35-07                 1.00   0.42  0.00  0.00  0.00  0.00  0.00  0.58  0.00  0.00
  Tu35-08                 1.00   0.40  0.00  0.00  0.00  0.00  0.00  0.60  0.00  0.00
  Tu35-09                 1.00   0.39  0.00  0.00  0.00  0.00  0.00  0.61  0.00  0.00
  Tu35-10                 1.00   0.38  0.00  0.00  0.00  0.00  0.00  0.62  0.00  0.00
  Tu35-11                 1.00   0.37  0.00  0.00  0.00  0.00  0.00  0.63  0.00  0.00
  Tu35-12                 1.00   0.36  0.00  0.00  0.00  0.00  0.00  0.64  0.00  0.00
  Tu35-13                 1.00   0.35  0.00  0.00  0.00  0.00  0.00  0.65  0.00  0.00
  Tu35-14                 1.00   0.33  0.00  0.00  0.00  0.00  0.00  0.67  0.00  0.00
  Tu35-15                 1.00   0.32  0.00  0.00  0.00  0.00  0.00  0.68  0.00  0.00
  Tu35-16                 1.00   0.31  0.00  0.00  0.00  0.00  0.00  0.69  0.00  0.00
  Tu35-17                 1.00   0.30  0.00  0.00  0.00  0.00  0.00  0.70  0.00  0.00
  Tu35-18                 1.00   0.28  0.00  0.00  0.00  0.00  0.00  0.72  0.00  0.00
  Tu35-19                 1.00   0.27  0.00  0.00  0.00  0.00  0.00  0.73  0.00  0.00
  Tu35-20                 1.00   0.26  0.00  0.00  0.00  0.00  0.00  0.74  0.00  0.00
  Tu35-21                 1.00   0.25  0.00  0.00  0.00  0.00  0.00  0.75  0.00  0.00
  Tu35-22                 1.00   0.24  0.00  0.00  0.00  0.00  0.00  0.76  0.00  0.00
  Tu35-23                 1.00   0.22  0.00  0.00  0.00  0.00  0.00  0.78  0.00  0.00
  Tu35-24                 1.00   0.21  0.00  0.00  0.00  0.00  0.00  0.79  0.00  0.00
  Tu35-25                 1.00   0.21  0.00  0.00  0.00  0.00  0.00  0.79  0.00  0.00
  Tu35-26                 1.00   0.17  0.00  0.00  0.00  0.00  0.00  0.83  0.00  0.00
  Tu35-27                 1.00   0.15  0.00  0.00  0.00  0.00  0.00  0.85  0.00  0.00
  Tu35-28                 1.00   0.14  0.00  0.00  0.00  0.00  0.00  0.86  0.00  0.00
  Tu35-29                 1.00   0.12  0.00  0.00  0.00  0.00  0.00  0.88  0.00  0.00
  Tu35-30                 1.00   0.06  0.06  0.00  0.50  0.38  0.00  0.00  0.93  0.00
  Tu35-31                 1.00   0.06  0.00  0.00  0.00  0.00  0.00  0.94  0.00  0.00
  Tu35-32                 1.00   0.04  0.00  0.00  0.00  0.00  0.00  0.96  0.00  0.00
  Tu35-33                 1.00   0.04  0.00  0.00  0.00  0.00  0.00  0.96  0.00  0.00
  Tu35-34                 1.00   0.04  0.00  0.00  0.00  0.00  0.00  0.96  0.00  0.00
  Tu35-35                 1.00   0.04  0.00  0.00  0.00  0.00  0.00  0.96  0.00  0.00
  Tu35-36                 1.00   0.04  0.00  0.00  0.00  0.00  0.00  0.96  0.00  0.00
  Tu35-37                 1.00   0.04  0.00  0.00  0.00  0.00  0.00  0.96  0.00  0.00
  Tu35-38                 1.00   0.04  0.00  0.00  0.00  0.00  0.00  0.96  0.00  0.00
  Tu35-39                 1.00   0.04  0.00  0.00  0.00  0.00  0.00  0.96  0.00  0.00
  Tu35-40                 1.00   0.04  0.00  0.00  0.00  0.00  0.00  0.96  0.00  0.00
  Tu35-41                 1.00   0.04  0.00  0.00  0.00  0.00  0.00  0.96  0.00  0.00
  Tu35-42                 1.00   0.04  0.00  0.00  0.00  0.00  0.00  0.96  0.00  0.00
  Tu35-43                 1.00   0.04  0.00  0.00  0.00  0.00  0.00  0.96  0.00  0.00
  Tu35-44                 1.00   0.04  0.00  0.00  0.00  0.00  0.00  0.96  0.00  0.00
  Tu35-45                 1.00   0.04  0.00  0.00  0.00  0.00  0.00  0.96  0.00  0.00
  Tu35-46                 1.00   0.04  0.00  0.00  0.00  0.00  0.00  0.96  0.00  0.00
  Tu35-47                 1.00   0.04  0.00  0.00  0.00  0.00  0.00  0.96  0.00  0.00
  Tu35-48                 1.00   0.04  0.00  0.00  0.00  0.00  0.00  0.96  0.00  0.00
  Tu35-49                 1.00   0.04  0.00  0.00  0.00  0.00  0.00  0.96  0.00  0.00
  Tu35-50                 1.00   0.04  0.00  0.00  0.00  0.00  0.00  0.96  0.00  0.00
  Tu35-51                 1.00   0.04  0.00  0.00  0.00  0.00  0.00  0.96  0.00  0.00
  Tu35-52                 1.00   0.04  0.00  0.00  0.00  0.00  0.00  0.96  0.00  0.00
  Tu35-53                 1.00   0.04  0.00  0.00  0.00  0.00  0.00  0.96  0.00  0.00
  Tu35-54                 1.00   0.04  0.00  0.00  0.00  0.00  0.00  0.96  0.00  0.00
  Tu35-55                 1.00   0.04  0.00  0.00  0.00  0.00  0.00  0.96  0.00  0.00
  Tu35-56                 1.00   0.04  0.00  0.00  0.00  0.00  0.00  0.96  0.00  0.00
  Tu35-57                 1.00   0.04  0.00  0.00  0.33  0.64  0.00  0.00  0.29  0.00
  
  
  *************************
  Conduit Surcharge Summary
  *************************
  
  ----------------------------------------------------------------------------
                                                           Hours        Hours 
                         --------- Hours Full --------   Above Full   Capacity
  Conduit                Both Ends  Upstream  Dnstream   Normal Flow   Limited
  ----------------------------------------------------------------------------
  Tu35-56                     0.01      0.01      0.01      0.04         0.01
  

  Analysis begun on:  Wed Jun 24 00:50:57 2026
  Analysis ended on:  Wed Jun 24 00:51:07 2026
  Total elapsed time: 00:00:10