
  EPA STORM WATER MANAGEMENT MODEL - VERSION 5.2 (Build 5.2.4)
  ------------------------------------------------------------

  
  ERROR 211: invalid number -612.000000 at line 2267 of [JUNC] section:
  LOADING_MH_3B	612.000000	-612.000000	0.000000	0.000000	0.000000

  
  ERROR 211: invalid number -595.000000 at line 2268 of [JUNC] section:
  LOADING_MH_ALT_3C	595.000000	-595.000000	0.000000	0.000000	0.000000

  
  ERROR 211: invalid number -679.000000 at line 2269 of [JUNC] section:
  LOADING_MH_ARCH_PS_A	679.000000	-679.000000	0.000000	0.000000	0.000000

  
  ERROR 211: invalid number -612.000000 at line 2272 of [JUNC] section:
  LOADING_MH_M17_ALT4B	612.000000	-612.000000	0.000000	0.000000	0.000000

  
  ERROR 211: invalid number -809.000000 at line 2273 of [JUNC] section:
  LOADING_MH_NEW_HAVEN	809.000000	-809.000000	0.000000	0.000000	0.000000

  
  ERROR 211: invalid number -770.000000 at line 2274 of [JUNC] section:
  LOADING_MH_WHISPERIN	770.000000	-770.000000	0.000000	0.000000	0.000000

  
  ERROR 211: invalid number  at line 6151 of [XSECT] section:
  999140	FORCE_MAIN	0.000000	110.000000	0.000000	0.000000	1	0


  Analysis begun on:  Wed Jun 24 00:51:45 2026
  Analysis ended on:  Wed Jun 24 00:51:45 2026
  Total elapsed time: < 1 sec