
  EPA STORM WATER MANAGEMENT MODEL - VERSION 5.2 (Build 5.2.4)
  ------------------------------------------------------------

  WARNING 03: negative offset ignored for Link BURLGA
  WARNING 04: minimum elevation drop used for Conduit F12833
  WARNING 04: minimum elevation drop used for Conduit F12841
  WARNING 04: minimum elevation drop used for Conduit F12843
  WARNING 04: minimum elevation drop used for Conduit F12845
  WARNING 04: minimum elevation drop used for Conduit F12847
  WARNING 04: minimum elevation drop used for Conduit F12849
  WARNING 04: minimum elevation drop used for Conduit F12851
  WARNING 04: minimum elevation drop used for Conduit F36492
  WARNING 04: minimum elevation drop used for Conduit F50337
  WARNING 04: minimum elevation drop used for Conduit F50338
  WARNING 04: minimum elevation drop used for Conduit F50339
  WARNING 04: minimum elevation drop used for Conduit F50340
  WARNING 04: minimum elevation drop used for Conduit F50341
  WARNING 04: minimum elevation drop used for Conduit F50342
  WARNING 04: minimum elevation drop used for Conduit F50343
  WARNING 04: minimum elevation drop used for Conduit F50344
  WARNING 04: minimum elevation drop used for Conduit F50345
  WARNING 04: minimum elevation drop used for Conduit F50346
  WARNING 04: minimum elevation drop used for Conduit F50347
  WARNING 04: minimum elevation drop used for Conduit F50348
  WARNING 04: minimum elevation drop used for Conduit F51558
  WARNING 03: negative offset ignored for Link F60103
  WARNING 03: negative offset ignored for Link F60104
  WARNING 03: negative offset ignored for Link F60161
  WARNING 03: negative offset ignored for Link F60161
  WARNING 04: minimum elevation drop used for Conduit F60173
  WARNING 04: minimum elevation drop used for Conduit F60174
  WARNING 04: minimum elevation drop used for Conduit F60197
  WARNING 04: minimum elevation drop used for Conduit F83299
  WARNING 04: minimum elevation drop used for Conduit F83395
  WARNING 03: negative offset ignored for Link SW-GAS
  
  ****************
  Analysis Options
  ****************
  Flow Units ............... LPS
  Process Models:
    Rainfall/Runoff ........ YES
    RDII ................... YES
    Snowmelt ............... NO
    Groundwater ............ NO
    Flow Routing ........... YES
    Ponding Allowed ........ YES
    Water Quality .......... NO
  Flow Routing Method ...... DYNWAVE
  Surcharge Method ......... EXTRAN
  Starting Date ............ 07/06/2012 00:00:00
  Ending Date .............. 07/07/2012 23:00:00
  Antecedent Dry Days ...... 5.0
  Report Time Step ......... 00:30:00
  Routing Time Step ........ 1.00 sec
  Variable Time Step ....... YES
  Maximum Trials ........... 4
  Number of Threads ........ 1
  Head Tolerance ........... 0.005000 m
  
  
  **********************           Volume        Volume
  Rainfall Dependent I/I        hectare-m      10^6 ltr
  **********************        ---------     ---------
  Sewershed Rainfall ......        48.754       487.549
  RDII Produced ...........         1.403        14.035
  RDII Ratio ..............         0.029
  
  
  *********************
  Control Actions Taken
  *********************
   07/06/2012: 00:00:00 Link FSCH setting changed to   1.00 by Control FSCHON
   07/06/2012: 00:27:28 Link FSCH setting changed to   0.00 by Control FSCHOFF
   07/06/2012: 04:29:17 Link FAIRH setting changed to   1.00 by Control FHON
   07/06/2012: 04:32:19 Link FAIRH setting changed to   0.00 by Control FHOFF
   07/06/2012: 06:46:35 Link FAIRH setting changed to   1.00 by Control FHON
   07/06/2012: 06:49:39 Link FAIRH setting changed to   0.00 by Control FHOFF
   07/06/2012: 07:58:02 Link FAIRH setting changed to   1.00 by Control FHON
   07/06/2012: 08:01:10 Link FAIRH setting changed to   0.00 by Control FHOFF
   07/06/2012: 08:48:39 Link FAIRH setting changed to   1.00 by Control FHON
   07/06/2012: 08:52:08 Link FAIRH setting changed to   0.00 by Control FHOFF
   07/06/2012: 09:35:23 Link FAIRH setting changed to   1.00 by Control FHON
   07/06/2012: 09:59:47 Link FAIRH setting changed to   0.00 by Control FHOFF
   07/06/2012: 10:47:38 Link FAIRH setting changed to   1.00 by Control FHON
   07/06/2012: 10:51:19 Link FAIRH setting changed to   0.00 by Control FHOFF
   07/06/2012: 11:49:47 Link FAIRH setting changed to   1.00 by Control FHON
   07/06/2012: 11:52:55 Link FAIRH setting changed to   0.00 by Control FHOFF
   07/06/2012: 13:04:43 Link FAIRH setting changed to   1.00 by Control FHON
   07/06/2012: 13:07:48 Link FAIRH setting changed to   0.00 by Control FHOFF
   07/06/2012: 14:32:26 Link FAIRH setting changed to   1.00 by Control FHON
   07/06/2012: 14:35:31 Link FAIRH setting changed to   0.00 by Control FHOFF
   07/06/2012: 16:08:09 Link FAIRH setting changed to   1.00 by Control FHON
   07/06/2012: 16:11:14 Link FAIRH setting changed to   0.00 by Control FHOFF
   07/06/2012: 17:41:05 Link FAIRH setting changed to   1.00 by Control FHON
   07/06/2012: 17:44:11 Link FAIRH setting changed to   0.00 by Control FHOFF
   07/06/2012: 18:59:33 Link FAIRH setting changed to   1.00 by Control FHON
   07/06/2012: 19:02:39 Link FAIRH setting changed to   0.00 by Control FHOFF
   07/06/2012: 20:09:34 Link FAIRH setting changed to   1.00 by Control FHON
   07/06/2012: 20:12:41 Link FAIRH setting changed to   0.00 by Control FHOFF
   07/06/2012: 21:20:43 Link FAIRH setting changed to   1.00 by Control FHON
   07/06/2012: 21:23:49 Link FAIRH setting changed to   0.00 by Control FHOFF
   07/06/2012: 22:39:51 Link FAIRH setting changed to   1.00 by Control FHON
   07/06/2012: 22:42:57 Link FAIRH setting changed to   0.00 by Control FHOFF
   07/07/2012: 00:18:10 Link FAIRH setting changed to   1.00 by Control FHON
   07/07/2012: 00:21:14 Link FAIRH setting changed to   0.00 by Control FHOFF
   07/07/2012: 01:11:19 Link FAIRH setting changed to   1.00 by Control FHON
   07/07/2012: 01:14:43 Link FAIRH setting changed to   0.00 by Control FHOFF
   07/07/2012: 01:30:51 Link FAIRH setting changed to   1.00 by Control FHON
   07/07/2012: 01:34:36 Link FAIRH setting changed to   0.00 by Control FHOFF
   07/07/2012: 01:45:57 Link FAIRH setting changed to   1.00 by Control FHON
   07/07/2012: 01:49:58 Link FAIRH setting changed to   0.00 by Control FHOFF
   07/07/2012: 01:59:22 Link FAIRH setting changed to   1.00 by Control FHON
   07/07/2012: 02:03:37 Link FAIRH setting changed to   0.00 by Control FHOFF
   07/07/2012: 02:11:56 Link FAIRH setting changed to   1.00 by Control FHON
   07/07/2012: 02:16:23 Link FAIRH setting changed to   0.00 by Control FHOFF
   07/07/2012: 02:24:01 Link FAIRH setting changed to   1.00 by Control FHON
   07/07/2012: 02:28:39 Link FAIRH setting changed to   0.00 by Control FHOFF
   07/07/2012: 02:35:49 Link FAIRH setting changed to   1.00 by Control FHON
   07/07/2012: 02:40:36 Link FAIRH setting changed to   0.00 by Control FHOFF
   07/07/2012: 02:47:28 Link FAIRH setting changed to   1.00 by Control FHON
   07/07/2012: 02:52:21 Link FAIRH setting changed to   0.00 by Control FHOFF
   07/07/2012: 02:59:02 Link FAIRH setting changed to   1.00 by Control FHON
   07/07/2012: 03:04:51 Link FAIRH setting changed to   0.00 by Control FHOFF
   07/07/2012: 03:11:26 Link FAIRH setting changed to   1.00 by Control FHON
   07/07/2012: 03:18:35 Link FAIRH setting changed to   0.00 by Control FHOFF
   07/07/2012: 03:25:08 Link FAIRH setting changed to   1.00 by Control FHON
   07/07/2012: 03:32:32 Link FAIRH setting changed to   0.00 by Control FHOFF
   07/07/2012: 03:39:06 Link FAIRH setting changed to   1.00 by Control FHON
   07/07/2012: 03:46:29 Link FAIRH setting changed to   0.00 by Control FHOFF
   07/07/2012: 03:53:02 Link FAIRH setting changed to   1.00 by Control FHON
   07/07/2012: 04:00:28 Link FAIRH setting changed to   0.00 by Control FHOFF
   07/07/2012: 04:07:01 Link FAIRH setting changed to   1.00 by Control FHON
   07/07/2012: 04:14:27 Link FAIRH setting changed to   0.00 by Control FHOFF
   07/07/2012: 04:21:00 Link FAIRH setting changed to   1.00 by Control FHON
   07/07/2012: 04:28:27 Link FAIRH setting changed to   0.00 by Control FHOFF
   07/07/2012: 04:35:00 Link FAIRH setting changed to   1.00 by Control FHON
   07/07/2012: 04:42:27 Link FAIRH setting changed to   0.00 by Control FHOFF
   07/07/2012: 04:48:58 Link FAIRH setting changed to   1.00 by Control FHON
   07/07/2012: 04:56:30 Link FAIRH setting changed to   0.00 by Control FHOFF
   07/07/2012: 05:03:02 Link FAIRH setting changed to   1.00 by Control FHON
   07/07/2012: 05:10:28 Link FAIRH setting changed to   0.00 by Control FHOFF
   07/07/2012: 05:16:59 Link FAIRH setting changed to   1.00 by Control FHON
   07/07/2012: 05:24:32 Link FAIRH setting changed to   0.00 by Control FHOFF
   07/07/2012: 05:31:02 Link FAIRH setting changed to   1.00 by Control FHON
   07/07/2012: 05:38:36 Link FAIRH setting changed to   0.00 by Control FHOFF
   07/07/2012: 05:45:06 Link FAIRH setting changed to   1.00 by Control FHON
   07/07/2012: 05:52:37 Link FAIRH setting changed to   0.00 by Control FHOFF
   07/07/2012: 05:59:08 Link FAIRH setting changed to   1.00 by Control FHON
   07/07/2012: 06:06:44 Link FAIRH setting changed to   0.00 by Control FHOFF
   07/07/2012: 06:13:11 Link FAIRH setting changed to   1.00 by Control FHON
   07/07/2012: 06:20:59 Link FAIRH setting changed to   0.00 by Control FHOFF
   07/07/2012: 06:27:24 Link FAIRH setting changed to   1.00 by Control FHON
   07/07/2012: 06:35:09 Link FAIRH setting changed to   0.00 by Control FHOFF
   07/07/2012: 06:41:35 Link FAIRH setting changed to   1.00 by Control FHON
   07/07/2012: 06:49:21 Link FAIRH setting changed to   0.00 by Control FHOFF
   07/07/2012: 06:55:47 Link FAIRH setting changed to   1.00 by Control FHON
   07/07/2012: 07:03:33 Link FAIRH setting changed to   0.00 by Control FHOFF
   07/07/2012: 07:09:55 Link FAIRH setting changed to   1.00 by Control FHON
   07/07/2012: 07:18:02 Link FAIRH setting changed to   0.00 by Control FHOFF
   07/07/2012: 07:24:18 Link FAIRH setting changed to   1.00 by Control FHON
   07/07/2012: 07:32:36 Link FAIRH setting changed to   0.00 by Control FHOFF
   07/07/2012: 07:38:52 Link FAIRH setting changed to   1.00 by Control FHON
   07/07/2012: 07:47:11 Link FAIRH setting changed to   0.00 by Control FHOFF
   07/07/2012: 07:53:28 Link FAIRH setting changed to   1.00 by Control FHON
   07/07/2012: 08:01:43 Link FAIRH setting changed to   0.00 by Control FHOFF
   07/07/2012: 08:07:55 Link FAIRH setting changed to   1.00 by Control FHON
   07/07/2012: 08:16:52 Link FAIRH setting changed to   0.00 by Control FHOFF
   07/07/2012: 08:22:51 Link FAIRH setting changed to   1.00 by Control FHON
   07/07/2012: 08:32:17 Link FAIRH setting changed to   0.00 by Control FHOFF
   07/07/2012: 08:38:16 Link FAIRH setting changed to   1.00 by Control FHON
   07/07/2012: 08:47:42 Link FAIRH setting changed to   0.00 by Control FHOFF
   07/07/2012: 08:53:40 Link FAIRH setting changed to   1.00 by Control FHON
   07/07/2012: 09:03:11 Link FAIRH setting changed to   0.00 by Control FHOFF
   07/07/2012: 09:09:04 Link FAIRH setting changed to   1.00 by Control FHON
   07/07/2012: 09:19:35 Link FAIRH setting changed to   0.00 by Control FHOFF
   07/07/2012: 09:25:20 Link FAIRH setting changed to   1.00 by Control FHON
   07/07/2012: 09:36:10 Link FAIRH setting changed to   0.00 by Control FHOFF
   07/07/2012: 09:41:54 Link FAIRH setting changed to   1.00 by Control FHON
   07/07/2012: 09:52:48 Link FAIRH setting changed to   0.00 by Control FHOFF
   07/07/2012: 09:58:32 Link FAIRH setting changed to   1.00 by Control FHON
   07/07/2012: 10:09:25 Link FAIRH setting changed to   0.00 by Control FHOFF
   07/07/2012: 10:15:06 Link FAIRH setting changed to   1.00 by Control FHON
   07/07/2012: 10:26:14 Link FAIRH setting changed to   0.00 by Control FHOFF
   07/07/2012: 10:31:55 Link FAIRH setting changed to   1.00 by Control FHON
   07/07/2012: 10:43:08 Link FAIRH setting changed to   0.00 by Control FHOFF
   07/07/2012: 10:43:09 Link FSCH setting changed to   1.00 by Control FSCHON
   07/07/2012: 10:48:50 Link FSCH setting changed to   0.00 by Control FHON
   07/07/2012: 10:48:50 Link FAIRH setting changed to   1.00 by Control FHON
   07/07/2012: 11:00:34 Link FAIRH setting changed to   0.00 by Control FHOFF
   07/07/2012: 11:06:16 Link FAIRH setting changed to   1.00 by Control FHON
   07/07/2012: 11:17:13 Link FAIRH setting changed to   0.00 by Control FHOFF
   07/07/2012: 11:17:13 Link FSCH setting changed to   1.00 by Control FSCHON
   07/07/2012: 11:22:57 Link FSCH setting changed to   0.00 by Control FHON
   07/07/2012: 11:22:57 Link FAIRH setting changed to   1.00 by Control FHON
   07/07/2012: 11:34:21 Link FAIRH setting changed to   0.00 by Control FHOFF
   07/07/2012: 11:40:07 Link FAIRH setting changed to   1.00 by Control FHON
   07/07/2012: 11:50:40 Link FAIRH setting changed to   0.00 by Control FHOFF
   07/07/2012: 11:50:40 Link FSCH setting changed to   1.00 by Control FSCHON
   07/07/2012: 11:56:25 Link FSCH setting changed to   0.00 by Control FHON
   07/07/2012: 11:56:25 Link FAIRH setting changed to   1.00 by Control FHON
   07/07/2012: 12:07:35 Link FAIRH setting changed to   0.00 by Control FHOFF
   07/07/2012: 12:13:26 Link FAIRH setting changed to   1.00 by Control FHON
   07/07/2012: 12:23:20 Link FAIRH setting changed to   0.00 by Control FHOFF
   07/07/2012: 12:28:02 Link FSCH setting changed to   1.00 by Control FSCHON
   07/07/2012: 12:29:15 Link FSCH setting changed to   0.00 by Control FHON
   07/07/2012: 12:29:15 Link FAIRH setting changed to   1.00 by Control FHON
   07/07/2012: 12:39:14 Link FAIRH setting changed to   0.00 by Control FHOFF
   07/07/2012: 12:39:25 Link FSCH setting changed to   1.00 by Control FSCHON
   07/07/2012: 12:45:08 Link FSCH setting changed to   0.00 by Control FHON
   07/07/2012: 12:45:08 Link FAIRH setting changed to   1.00 by Control FHON
   07/07/2012: 12:55:33 Link FAIRH setting changed to   0.00 by Control FHOFF
   07/07/2012: 13:01:28 Link FAIRH setting changed to   1.00 by Control FHON
   07/07/2012: 13:11:06 Link FAIRH setting changed to   0.00 by Control FHOFF
   07/07/2012: 13:17:07 Link FAIRH setting changed to   1.00 by Control FHON
   07/07/2012: 13:26:18 Link FAIRH setting changed to   0.00 by Control FHOFF
   07/07/2012: 13:26:19 Link FSCH setting changed to   1.00 by Control FSCHON
   07/07/2012: 13:32:20 Link FSCH setting changed to   0.00 by Control FHON
   07/07/2012: 13:32:20 Link FAIRH setting changed to   1.00 by Control FHON
   07/07/2012: 13:42:08 Link FAIRH setting changed to   0.00 by Control FHOFF
   07/07/2012: 13:48:10 Link FAIRH setting changed to   1.00 by Control FHON
   07/07/2012: 13:57:27 Link FAIRH setting changed to   0.00 by Control FHOFF
   07/07/2012: 13:58:09 Link FSCH setting changed to   1.00 by Control FSCHON
   07/07/2012: 14:03:30 Link FSCH setting changed to   0.00 by Control FHON
   07/07/2012: 14:03:30 Link FAIRH setting changed to   1.00 by Control FHON
   07/07/2012: 14:13:01 Link FAIRH setting changed to   0.00 by Control FHOFF
   07/07/2012: 14:19:11 Link FAIRH setting changed to   1.00 by Control FHON
   07/07/2012: 14:27:50 Link FAIRH setting changed to   0.00 by Control FHOFF
   07/07/2012: 14:34:01 Link FAIRH setting changed to   1.00 by Control FHON
   07/07/2012: 14:42:40 Link FAIRH setting changed to   0.00 by Control FHOFF
   07/07/2012: 14:42:40 Link FSCH setting changed to   1.00 by Control FSCHON
   07/07/2012: 14:48:51 Link FSCH setting changed to   0.00 by Control FHON
   07/07/2012: 14:48:51 Link FAIRH setting changed to   1.00 by Control FHON
   07/07/2012: 14:57:58 Link FAIRH setting changed to   0.00 by Control FHOFF
   07/07/2012: 15:04:09 Link FAIRH setting changed to   1.00 by Control FHON
   07/07/2012: 15:12:43 Link FAIRH setting changed to   0.00 by Control FHOFF
   07/07/2012: 15:18:19 Link FSCH setting changed to   1.00 by Control FSCHON
   07/07/2012: 15:18:58 Link FSCH setting changed to   0.00 by Control FHON
   07/07/2012: 15:18:58 Link FAIRH setting changed to   1.00 by Control FHON
   07/07/2012: 15:27:21 Link FAIRH setting changed to   0.00 by Control FHOFF
   07/07/2012: 15:27:22 Link FSCH setting changed to   1.00 by Control FSCHON
   07/07/2012: 15:33:37 Link FSCH setting changed to   0.00 by Control FHON
   07/07/2012: 15:33:37 Link FAIRH setting changed to   1.00 by Control FHON
   07/07/2012: 15:42:27 Link FAIRH setting changed to   0.00 by Control FHOFF
   07/07/2012: 15:48:44 Link FAIRH setting changed to   1.00 by Control FHON
   07/07/2012: 15:57:04 Link FAIRH setting changed to   0.00 by Control FHOFF
   07/07/2012: 16:03:19 Link FAIRH setting changed to   1.00 by Control FHON
   07/07/2012: 16:11:32 Link FAIRH setting changed to   0.00 by Control FHOFF
   07/07/2012: 16:11:32 Link FSCH setting changed to   1.00 by Control FSCHON
   07/07/2012: 16:17:51 Link FSCH setting changed to   0.00 by Control FHON
   07/07/2012: 16:17:51 Link FAIRH setting changed to   1.00 by Control FHON
   07/07/2012: 16:26:33 Link FAIRH setting changed to   0.00 by Control FHOFF
   07/07/2012: 16:32:52 Link FAIRH setting changed to   1.00 by Control FHON
   07/07/2012: 16:41:03 Link FAIRH setting changed to   0.00 by Control FHOFF
   07/07/2012: 16:47:23 Link FAIRH setting changed to   1.00 by Control FHON
   07/07/2012: 16:55:29 Link FAIRH setting changed to   0.00 by Control FHOFF
   07/07/2012: 16:55:29 Link FSCH setting changed to   1.00 by Control FSCHON
   07/07/2012: 17:01:48 Link FSCH setting changed to   0.00 by Control FHON
   07/07/2012: 17:01:48 Link FAIRH setting changed to   1.00 by Control FHON
   07/07/2012: 17:10:33 Link FAIRH setting changed to   0.00 by Control FHOFF
   07/07/2012: 17:16:49 Link FAIRH setting changed to   1.00 by Control FHON
   07/07/2012: 17:25:05 Link FAIRH setting changed to   0.00 by Control FHOFF
   07/07/2012: 17:29:56 Link FSCH setting changed to   1.00 by Control FSCHON
   07/07/2012: 17:31:20 Link FSCH setting changed to   0.00 by Control FHON
   07/07/2012: 17:31:20 Link FAIRH setting changed to   1.00 by Control FHON
   07/07/2012: 17:39:52 Link FAIRH setting changed to   0.00 by Control FHOFF
   07/07/2012: 17:43:02 Link FSCH setting changed to   1.00 by Control FSCHON
   07/07/2012: 17:46:07 Link FSCH setting changed to   0.00 by Control FHON
   07/07/2012: 17:46:07 Link FAIRH setting changed to   1.00 by Control FHON
   07/07/2012: 17:54:50 Link FAIRH setting changed to   0.00 by Control FHOFF
   07/07/2012: 18:01:05 Link FAIRH setting changed to   1.00 by Control FHON
   07/07/2012: 18:09:24 Link FAIRH setting changed to   0.00 by Control FHOFF
   07/07/2012: 18:10:00 Link FSCH setting changed to   1.00 by Control FSCHON
   07/07/2012: 18:15:39 Link FSCH setting changed to   0.00 by Control FHON
   07/07/2012: 18:15:39 Link FAIRH setting changed to   1.00 by Control FHON
   07/07/2012: 18:24:33 Link FAIRH setting changed to   0.00 by Control FHOFF
   07/07/2012: 18:30:47 Link FAIRH setting changed to   1.00 by Control FHON
   07/07/2012: 18:39:12 Link FAIRH setting changed to   0.00 by Control FHOFF
   07/07/2012: 18:45:27 Link FAIRH setting changed to   1.00 by Control FHON
   07/07/2012: 18:53:54 Link FAIRH setting changed to   0.00 by Control FHOFF
   07/07/2012: 18:53:55 Link FSCH setting changed to   1.00 by Control FSCHON
   07/07/2012: 19:00:08 Link FSCH setting changed to   0.00 by Control FHON
   07/07/2012: 19:00:08 Link FAIRH setting changed to   1.00 by Control FHON
   07/07/2012: 19:09:05 Link FAIRH setting changed to   0.00 by Control FHOFF
   07/07/2012: 19:15:17 Link FAIRH setting changed to   1.00 by Control FHON
   07/07/2012: 19:23:48 Link FAIRH setting changed to   0.00 by Control FHOFF
   07/07/2012: 19:30:01 Link FAIRH setting changed to   1.00 by Control FHON
   07/07/2012: 19:38:31 Link FAIRH setting changed to   0.00 by Control FHOFF
   07/07/2012: 19:38:32 Link FSCH setting changed to   1.00 by Control FSCHON
   07/07/2012: 19:44:43 Link FSCH setting changed to   0.00 by Control FHON
   07/07/2012: 19:44:43 Link FAIRH setting changed to   1.00 by Control FHON
   07/07/2012: 19:53:36 Link FAIRH setting changed to   0.00 by Control FHOFF
   07/07/2012: 19:59:49 Link FAIRH setting changed to   1.00 by Control FHON
   07/07/2012: 20:08:20 Link FAIRH setting changed to   0.00 by Control FHOFF
   07/07/2012: 20:11:39 Link FSCH setting changed to   1.00 by Control FSCHON
   07/07/2012: 20:14:34 Link FSCH setting changed to   0.00 by Control FHON
   07/07/2012: 20:14:34 Link FAIRH setting changed to   1.00 by Control FHON
   07/07/2012: 20:23:16 Link FAIRH setting changed to   0.00 by Control FHOFF
   07/07/2012: 20:29:31 Link FAIRH setting changed to   1.00 by Control FHON
   07/07/2012: 20:37:54 Link FAIRH setting changed to   0.00 by Control FHOFF
   07/07/2012: 20:37:55 Link FSCH setting changed to   1.00 by Control FSCHON
   07/07/2012: 20:44:09 Link FSCH setting changed to   0.00 by Control FHON
   07/07/2012: 20:44:09 Link FAIRH setting changed to   1.00 by Control FHON
   07/07/2012: 20:53:00 Link FAIRH setting changed to   0.00 by Control FHOFF
   07/07/2012: 20:59:16 Link FAIRH setting changed to   1.00 by Control FHON
   07/07/2012: 21:07:38 Link FAIRH setting changed to   0.00 by Control FHOFF
   07/07/2012: 21:13:55 Link FAIRH setting changed to   1.00 by Control FHON
   07/07/2012: 21:22:11 Link FAIRH setting changed to   0.00 by Control FHOFF
   07/07/2012: 21:22:11 Link FSCH setting changed to   1.00 by Control FSCHON
   07/07/2012: 21:28:29 Link FSCH setting changed to   0.00 by Control FHON
   07/07/2012: 21:28:29 Link FAIRH setting changed to   1.00 by Control FHON
   07/07/2012: 21:37:16 Link FAIRH setting changed to   0.00 by Control FHOFF
   07/07/2012: 21:43:34 Link FAIRH setting changed to   1.00 by Control FHON
   07/07/2012: 21:51:47 Link FAIRH setting changed to   0.00 by Control FHOFF
   07/07/2012: 21:58:05 Link FAIRH setting changed to   1.00 by Control FHON
   07/07/2012: 22:06:13 Link FAIRH setting changed to   0.00 by Control FHOFF
   07/07/2012: 22:06:13 Link FSCH setting changed to   1.00 by Control FSCHON
   07/07/2012: 22:12:33 Link FSCH setting changed to   0.00 by Control FHON
   07/07/2012: 22:12:33 Link FAIRH setting changed to   1.00 by Control FHON
   07/07/2012: 22:21:04 Link FAIRH setting changed to   0.00 by Control FHOFF
   07/07/2012: 22:27:26 Link FAIRH setting changed to   1.00 by Control FHON
   07/07/2012: 22:35:26 Link FAIRH setting changed to   0.00 by Control FHOFF
   07/07/2012: 22:40:34 Link FSCH setting changed to   1.00 by Control FSCHON
   07/07/2012: 22:41:47 Link FSCH setting changed to   0.00 by Control FHON
   07/07/2012: 22:41:47 Link FAIRH setting changed to   1.00 by Control FHON
   07/07/2012: 22:49:55 Link FAIRH setting changed to   0.00 by Control FHOFF
   07/07/2012: 22:52:16 Link FSCH setting changed to   1.00 by Control FSCHON
   07/07/2012: 22:56:16 Link FSCH setting changed to   0.00 by Control FHON
   07/07/2012: 22:56:16 Link FAIRH setting changed to   1.00 by Control FHON

  
  **************************        Volume        Volume
  Flow Routing Continuity        hectare-m      10^6 ltr
  **************************     ---------     ---------
  Dry Weather Inflow .......         0.534         5.338
  Wet Weather Inflow .......         0.000         0.000
  Groundwater Inflow .......         0.000         0.000
  RDII Inflow ..............         1.393        13.927
  External Inflow ..........         2.438        24.384
  External Outflow .........         4.245        42.450
  Flooding Loss ............         0.063         0.628
  Evaporation Loss .........         0.000         0.000
  Exfiltration Loss ........         0.000         0.000
  Initial Stored Volume ....         0.007         0.075
  Final Stored Volume ......         0.236         2.357
  Continuity Error (%) .....        -3.918
  
  
  *************************
  Highest Continuity Errors
  *************************
  Node F60494 (82.88%)
  Node F50325 (-49.59%)
  Node 8242 (36.78%)
  Node F437377 (30.96%)
  Node F1154 (-25.45%)
  
  
  ***************************
  Time-Step Critical Elements
  ***************************
  Link 60026 (67.20%)
  Link F60103 (7.12%)
  Link F60197 (2.72%)
  Link 60043O-SGR (2.54%)
  
  
  ********************************
  Highest Flow Instability Indexes
  ********************************
  Link F50337 (138)
  Link F50338 (134)
  Link F50336 (127)
  Link F83396 (124)
  Link F50340 (123)
  
  
  *********************************
  Most Frequent Nonconverging Nodes
  *********************************
  Node OFALL-24 (94.78%)
  Node F50323 (87.83%)
  Node F50327 (83.93%)
  Node F50326 (82.18%)
  Node F50328 (82.12%)
  
  
  *************************
  Routing Time Step Summary
  *************************
  Minimum Time Step           :     0.01 sec
  Average Time Step           :     0.72 sec
  Maximum Time Step           :     1.00 sec
  % of Time in Steady State   :     0.00
  Average Iterations per Step :     3.91
  % of Steps Not Converging   :    94.78
  Time Step Frequencies       :
      1.000 -  0.251 sec      :    99.10 %
      0.251 -  0.063 sec      :     0.89 %
      0.063 -  0.016 sec      :     0.01 %
      0.016 -  0.004 sec      :     0.00 %
      0.004 -  0.001 sec      :     0.00 %
  
  
  ******************
  Node Depth Summary
  ******************
  
  ---------------------------------------------------------------------------------
                                 Average  Maximum  Maximum  Time of Max    Reported
                                   Depth    Depth      HGL   Occurrence   Max Depth
  Node                 Type       Meters   Meters   Meters  days hr:min      Meters
  ---------------------------------------------------------------------------------
  1012                 JUNCTION     0.02     0.03    26.40     1  10:30        0.03
  1017                 JUNCTION     0.01     0.01    28.48     1  10:15        0.01
  1026                 JUNCTION     0.01     0.01    29.70     1  10:18        0.01
  1030                 JUNCTION     0.01     0.01    23.03     1  09:58        0.01
  1050                 JUNCTION     0.02     0.03    40.83     1  10:30        0.03
  1056                 JUNCTION     0.16     0.17    64.26     1  10:28        0.17
  1095                 JUNCTION     0.01     0.02    51.44     1  10:14        0.02
  1096                 JUNCTION     0.01     0.01    53.31     1  09:48        0.01
  1097                 JUNCTION     0.01     0.01    52.11     1  10:28        0.01
  1098                 JUNCTION     0.01     0.01    55.11     1  09:46        0.01
  1099                 JUNCTION     0.01     0.01    43.80     1  10:02        0.01
  1100                 JUNCTION     0.01     0.01    46.80     1  09:48        0.01
  1101                 JUNCTION     0.01     0.01    49.90     1  10:10        0.01
  1111                 JUNCTION     0.01     0.01    57.82     1  10:04        0.01
  1112                 JUNCTION     0.01     0.01    56.63     1  10:12        0.01
  1113                 JUNCTION     0.01     0.01    57.09     1  09:33        0.01
  1114                 JUNCTION     0.02     0.03    65.88     1  10:29        0.03
  1115                 JUNCTION     0.02     0.02    60.71     1  10:30        0.02
  1116                 JUNCTION     0.01     0.02    54.31     1  10:30        0.02
  1117                 JUNCTION     0.02     0.03    52.99     1  10:29        0.03
  1118                 JUNCTION     0.01     0.02    52.32     1  10:29        0.02
  1174                 JUNCTION     0.07     0.61    27.99     0  09:02        0.41
  1175                 JUNCTION     0.53     0.58    27.18     0  09:36        0.58
  1176                 JUNCTION     0.08     0.15    26.25     0  09:39        0.13
  1179                 JUNCTION     0.01     0.01    41.21     1  09:40        0.01
  1187                 JUNCTION     0.39     0.65    13.05     1  11:39        0.65
  1191                 JUNCTION     0.00     0.00    57.31     1  09:34        0.00
  1192                 JUNCTION     0.01     0.01    54.13     1  10:27        0.01
  30070                JUNCTION     0.01     0.01    38.40     1  09:48        0.01
  30071                JUNCTION     0.01     0.02    37.06     1  10:18        0.02
  30073                JUNCTION     0.01     0.02    33.52     1  10:21        0.02
  30074                JUNCTION     0.02     0.02    31.72     1  10:21        0.02
  30080                JUNCTION     0.01     0.01    36.35     1  09:59        0.01
  30215                JUNCTION     0.03     0.04    31.13     1  10:30        0.04
  30218                JUNCTION     0.02     0.03    32.88     1  10:30        0.03
  30402                JUNCTION     0.01     0.01    21.27     1  10:21        0.01
  30403                JUNCTION     0.01     0.01    21.81     1  09:42        0.01
  30404                JUNCTION     0.01     0.01    22.42     1  10:17        0.01
  30779                JUNCTION     0.01     0.01    22.12     1  09:48        0.01
  35948                JUNCTION     0.01     0.02    30.55     1  10:26        0.02
  35952                JUNCTION     0.01     0.01    33.25     1  10:18        0.01
  35961                JUNCTION     0.01     0.01    41.51     1  09:41        0.01
  35962                JUNCTION     0.01     0.02    41.02     1  10:03        0.02
  35988                JUNCTION     0.00     0.01    30.44     1  10:02        0.01
  36035                JUNCTION     0.01     0.01    34.40     1  10:05        0.01
  36111                JUNCTION     0.02     0.02    38.12     1  10:30        0.02
  36113                JUNCTION     0.01     0.01    34.48     1  09:48        0.01
  36127                JUNCTION     0.02     0.03    43.19     1  10:30        0.03
  36128                JUNCTION     0.01     0.01    46.36     1  09:56        0.01
  36129                JUNCTION     0.03     0.05    43.62     1  10:30        0.05
  36130                JUNCTION     0.01     0.01    41.91     1  10:30        0.01
  36310                JUNCTION     0.01     0.01    30.30     1  10:18        0.01
  36409                JUNCTION     0.01     0.02    25.46     1  10:30        0.02
  36520                JUNCTION     0.00     0.00    41.90     0  00:00        0.00
  36564                JUNCTION     0.00     0.01    25.34     1  10:13        0.01
  36585                JUNCTION     0.00     0.00    28.62     1  09:59        0.00
  36921                JUNCTION     0.01     0.02    40.78     1  10:24        0.02
  39997                JUNCTION     0.22     0.86    15.35     1  10:38        0.68
  40134                JUNCTION     0.11     0.17    21.33     0  09:31        0.17
  40404                JUNCTION     0.02     0.03    32.98     1  10:30        0.03
  40405                JUNCTION     0.01     0.02    33.46     1  10:18        0.02
  40406                JUNCTION     0.01     0.01    33.74     1  10:17        0.01
  40573                JUNCTION     0.02     0.03    33.47     1  10:30        0.03
  40574                JUNCTION     0.02     0.02    33.75     1  10:13        0.02
  40575                JUNCTION     0.01     0.01    36.33     1  10:18        0.01
  40576                JUNCTION     0.01     0.02    34.14     1  10:18        0.02
  40658                JUNCTION     0.02     0.03    44.09     1  10:25        0.03
  40659                JUNCTION     0.01     0.02    46.24     1  10:26        0.02
  40660                JUNCTION     0.01     0.02    48.20     1  04:50        0.02
  40661                JUNCTION     0.01     0.01    49.73     1  08:37        0.01
  40662                JUNCTION     0.01     0.01    49.40     1  07:10        0.01
  40667                JUNCTION     0.01     0.02    47.39     1  10:29        0.02
  40792                JUNCTION     0.01     0.01    20.18     1  10:11        0.01
  41416                JUNCTION     0.03     0.04    33.27     1  10:30        0.04
  41419                JUNCTION     0.02     0.04    33.57     1  10:30        0.04
  41420                JUNCTION     0.02     0.03    34.94     1  10:21        0.03
  41421                JUNCTION     0.02     0.04    34.10     1  10:30        0.04
  41427                JUNCTION     0.03     0.04    33.77     1  10:30        0.04
  42184                JUNCTION     0.01     0.02    35.24     1  09:43        0.02
  42185                JUNCTION     0.01     0.02    35.31     1  09:56        0.02
  42186                JUNCTION     0.02     0.03    34.73     1  09:44        0.03
  42187                JUNCTION     0.02     0.03    34.33     1  09:49        0.03
  43469                JUNCTION     0.00     0.01    53.83     1  21:02        0.01
  43470                JUNCTION     0.01     0.01    52.23     1  05:25        0.01
  43471                JUNCTION     0.01     0.02    49.57     1  04:07        0.02
  43472                JUNCTION     0.01     0.01    52.67     1  05:14        0.01
  44250                JUNCTION     0.29     0.49    14.37     1  11:28        0.49
  45752                JUNCTION     0.04     0.07    21.87     1  10:30        0.07
  45986                JUNCTION     0.12     0.20    19.75     1  10:45        0.20
  47336                JUNCTION     0.01     0.02    38.98     1  10:30        0.02
  47337                JUNCTION     0.01     0.01    39.42     1  10:30        0.01
  47339                JUNCTION     1.25     2.51    14.71     1  02:35        2.47
  47340                JUNCTION     1.62     3.21    14.71     1  02:35        3.18
  47341                JUNCTION     1.09     2.20    14.71     1  02:35        2.16
  47342                JUNCTION     0.83     1.66    14.66     1  02:36        1.66
  47343                JUNCTION     0.48     1.00    14.69     1  02:24        0.97
  47344                JUNCTION     0.70     1.40    14.64     1  02:34        1.40
  47345                JUNCTION     0.50     1.01    14.66     1  10:30        1.00
  47346                JUNCTION     0.44     0.90    14.66     1  08:30        0.89
  47347                JUNCTION     0.97     1.98    14.72     1  02:35        1.94
  47348                JUNCTION     0.80     1.64    14.71     1  02:07        1.62
  47349                JUNCTION     0.43     0.88    14.69     1  02:27        0.87
  47350                JUNCTION     0.66     1.42    14.76     1  02:30        1.34
  47351                JUNCTION     0.31     1.00    15.04     1  02:30        0.63
  47352                JUNCTION     0.54     1.18    14.76     1  02:30        1.09
  48593                JUNCTION     0.01     0.01    44.34     1  10:17        0.01
  48594                JUNCTION     0.02     0.02    42.45     1  10:29        0.02
  48596                JUNCTION     0.02     0.02    41.76     1  10:30        0.02
  48597                JUNCTION     0.01     0.02    41.12     1  10:26        0.02
  48598                JUNCTION     0.02     0.02    39.93     1  10:29        0.02
  48599                JUNCTION     0.01     0.01    38.46     1  10:30        0.01
  48600                JUNCTION     0.02     0.03    38.23     1  10:30        0.03
  48601                JUNCTION     0.02     0.02    39.04     1  10:28        0.02
  48604                JUNCTION     0.01     0.02    36.76     1  10:30        0.02
  48605                JUNCTION     0.01     0.02    36.57     1  10:30        0.02
  48606                JUNCTION     0.02     0.02    36.08     1  10:30        0.02
  48607                JUNCTION     0.01     0.01    38.89     1  10:30        0.01
  48608                JUNCTION     0.01     0.01    39.72     1  10:30        0.01
  48609                JUNCTION     0.02     0.03    37.42     1  10:30        0.03
  48610                JUNCTION     0.02     0.03    37.02     1  10:30        0.03
  48739                JUNCTION     0.00     0.01    44.72     1  10:18        0.01
  48740                JUNCTION     0.01     0.01    43.32     1  10:29        0.01
  48741                JUNCTION     0.01     0.02    43.06     1  10:20        0.02
  48798                JUNCTION     0.03     0.04    11.81     1  10:30        0.04
  48801                JUNCTION     0.03     0.04    12.28     1  10:30        0.04
  48802                JUNCTION     0.03     0.04    12.44     1  10:30        0.04
  49158                JUNCTION     0.04     0.06    12.04     1  10:27        0.06
  49190                JUNCTION     0.01     0.02    13.24     1  10:00        0.02
  49191                JUNCTION     0.02     0.03    12.98     1  10:11        0.03
  49193                JUNCTION     0.03     0.05    12.74     1  10:30        0.05
  49194                JUNCTION     0.03     0.05    12.29     1  10:26        0.05
  49195                JUNCTION     0.01     0.02    12.75     1  09:54        0.02
  49196                JUNCTION     0.04     0.06    11.91     1  10:29        0.06
  49197                JUNCTION     0.10     0.12    11.56     1  10:30        0.12
  49198                JUNCTION     0.13     0.19    11.39     1  09:42        0.19
  50873                JUNCTION     0.08     0.13    10.68     1  10:30        0.13
  50874                JUNCTION     0.05     0.08    13.76     1  10:29        0.08
  50875                JUNCTION     0.04     0.07    14.05     1  10:28        0.07
  50876                JUNCTION     0.04     0.06    14.74     1  10:28        0.06
  50877                JUNCTION     0.02     0.04    19.25     1  10:22        0.04
  50878                JUNCTION     0.02     0.03    22.93     1  10:18        0.03
  50879                JUNCTION     0.02     0.03    26.76     1  10:24        0.03
  50880                JUNCTION     0.02     0.03    28.33     1  10:06        0.03
  50881                JUNCTION     0.05     0.08    11.15     1  10:30        0.08
  50882                JUNCTION     0.05     0.08    11.68     1  10:30        0.08
  50883                JUNCTION     0.05     0.08    12.10     1  10:30        0.08
  50884                JUNCTION     0.05     0.08    12.70     1  10:30        0.08
  50885                JUNCTION     0.04     0.07    13.25     1  10:30        0.07
  50886                JUNCTION     0.03     0.06    13.95     1  10:29        0.06
  50887                JUNCTION     0.02     0.03    17.05     1  10:02        0.03
  50888                JUNCTION     0.02     0.04    14.40     1  10:30        0.04
  50889                JUNCTION     0.01     0.02    15.88     1  10:00        0.02
  50890                JUNCTION     0.01     0.01    18.65     1  10:12        0.01
  51019                JUNCTION     0.01     0.02    21.74     1  10:02        0.02
  51020                JUNCTION     0.01     0.02    23.28     1  10:20        0.02
  51021                JUNCTION     0.01     0.02    24.86     1  10:12        0.02
  51022                JUNCTION     0.01     0.02    25.17     1  09:37        0.02
  51024                JUNCTION     0.01     0.02    30.49     1  09:35        0.02
  51025                JUNCTION     0.02     0.03    19.96     1  10:21        0.03
  51026                JUNCTION     0.01     0.01    16.18     1  10:02        0.01
  51032                JUNCTION     0.01     0.02    22.10     1  10:02        0.02
  51038                JUNCTION     0.01     0.02    19.28     1  09:44        0.02
  51039                JUNCTION     0.01     0.01    23.00     1  09:34        0.01
  51040                JUNCTION     0.01     0.01    27.01     1  09:34        0.01
  51097                JUNCTION     0.01     0.01    61.24     1  09:46        0.01
  51098                JUNCTION     0.04     0.06    60.75     1  10:30        0.06
  51549                JUNCTION     0.02     0.04    13.02     1  10:02        0.04
  51553                JUNCTION     0.35     0.97    14.19     1  04:46        0.75
  51671                JUNCTION     0.03     0.04    39.60     1  10:26        0.04
  51672                JUNCTION     0.03     0.04    39.87     1  10:30        0.04
  51673                JUNCTION     0.02     0.04    40.19     1  10:25        0.04
  51674                JUNCTION     0.02     0.03    40.50     1  10:24        0.03
  51675                JUNCTION     0.02     0.03    40.80     1  10:18        0.03
  51941                JUNCTION     0.01     0.01    44.89     1  10:06        0.01
  52132                JUNCTION     0.00     0.01    55.06     1  07:14        0.01
  52133                JUNCTION     0.00     0.01    56.19     1  02:52        0.01
  52152                JUNCTION     0.01     0.01    49.27     1  03:07        0.01
  52383                JUNCTION     0.05     0.08    44.98     1  10:23        0.08
  52384                JUNCTION     0.04     0.07    48.37     1  10:17        0.07
  52816                JUNCTION     0.03     0.04    25.01     1  10:30        0.04
  52817                JUNCTION     0.01     0.01    26.11     1  09:54        0.01
  53813                JUNCTION     0.79     1.59    14.67     1  02:36        1.58
  53814                JUNCTION     0.63     1.27    14.63     1  02:34        1.27
  53815                JUNCTION     0.93     1.87    14.66     1  09:57        1.87
  53816                JUNCTION     1.20     2.41    14.69     1  02:36        2.39
  53817                JUNCTION     1.38     2.76    14.70     1  02:35        2.74
  53818                JUNCTION     1.52     3.04    14.72     1  02:35        3.00
  54190                JUNCTION     0.32     1.01    14.80     1  11:21        0.67
  54191                JUNCTION     0.01     0.03    14.55     1  10:36        0.02
  54192                JUNCTION     0.01     0.01    14.77     1  10:15        0.01
  54193                JUNCTION     0.01     0.01    14.70     1  09:49        0.01
  54194                JUNCTION     0.02     0.03    14.53     1  10:17        0.03
  54195                JUNCTION     0.33     1.83    15.55     1  09:45        0.68
  54196                JUNCTION     0.10     0.48    14.50     1  10:36        0.38
  54207                JUNCTION     0.01     0.02    14.60     1  09:40        0.02
  54208                JUNCTION     0.01     0.08    14.50     1  10:36        0.02
  54707                JUNCTION     0.01     0.02    13.51     1  10:26        0.02
  54708                JUNCTION     0.02     0.03    13.02     1  10:30        0.03
  54709                JUNCTION     0.01     0.02    13.27     1  10:20        0.02
  54735                JUNCTION     0.02     0.04    12.21     1  09:33        0.04
  54736                JUNCTION     0.02     0.04    12.67     1  09:31        0.04
  54737                JUNCTION     0.02     0.03    12.83     1  09:30        0.03
  54738                JUNCTION     0.02     0.03    13.35     1  09:30        0.03
  54739                JUNCTION     0.01     0.02    13.85     1  09:26        0.02
  54927                JUNCTION     0.02     0.03    41.54     1  10:30        0.03
  54928                JUNCTION     0.01     0.01    50.99     1  10:30        0.01
  54929                JUNCTION     0.01     0.01    56.65     1  10:30        0.01
  54930                JUNCTION     0.01     0.01    60.04     1  10:30        0.01
  54931                JUNCTION     0.01     0.01    63.62     1  10:30        0.01
  54932                JUNCTION     0.01     0.02    65.68     1  10:30        0.02
  54933                JUNCTION     0.01     0.01    67.40     1  10:30        0.01
  54934                JUNCTION     0.01     0.01    67.99     1  10:30        0.01
  54935                JUNCTION     0.01     0.02    69.59     1  10:29        0.02
  54936                JUNCTION     0.02     0.03    70.43     1  10:29        0.03
  54937                JUNCTION     0.01     0.01    73.62     1  10:02        0.01
  54949                JUNCTION     0.01     0.02    65.95     1  10:28        0.02
  54970                JUNCTION     0.03     0.06    11.97     1  09:34        0.06
  54971                JUNCTION     0.03     0.06    11.74     1  09:35        0.06
  56526                JUNCTION     0.25     0.41    17.71     1  11:30        0.41
  56777                JUNCTION     0.01     0.02    13.64     1  10:30        0.02
  56778                JUNCTION     0.01     0.02    13.20     1  10:30        0.02
  56779                JUNCTION     0.02     0.03    12.79     1  10:30        0.03
  56780                JUNCTION     0.03     0.04    12.45     1  10:30        0.04
  56781                JUNCTION     0.03     0.05    11.91     1  10:30        0.05
  56923                JUNCTION     0.02     0.02    36.70     1  10:30        0.02
  56924                JUNCTION     0.01     0.02    37.27     1  10:30        0.02
  56925                JUNCTION     0.01     0.02    37.70     1  10:30        0.02
  56926                JUNCTION     0.01     0.01    38.57     1  10:30        0.01
  57024                JUNCTION     0.01     0.02    77.57     1  10:14        0.02
  57025                JUNCTION     0.01     0.01    77.02     1  09:56        0.01
  57026                JUNCTION     0.01     0.01    69.56     1  10:11        0.01
  57499                JUNCTION     0.02     0.03    34.27     1  10:28        0.03
  57518                JUNCTION     0.02     0.03    34.64     1  10:28        0.03
  57520                JUNCTION     0.02     0.03    35.18     1  10:27        0.03
  57521                JUNCTION     0.54     0.60    35.81     1  10:15        0.60
  57523                JUNCTION     0.05     0.06    35.81     1  09:59        0.06
  57525                JUNCTION     0.01     0.01    36.34     1  10:08        0.01
  59088                JUNCTION     0.01     0.01    13.35     1  10:22        0.01
  59090                JUNCTION     0.01     0.02    13.03     1  10:13        0.02
  59091                JUNCTION     0.01     0.02    12.81     1  10:13        0.02
  59092                JUNCTION     0.01     0.02    12.59     1  10:19        0.02
  59093                JUNCTION     0.02     0.03    12.47     1  10:20        0.03
  59094                JUNCTION     0.01     0.02    12.07     1  10:22        0.02
  60011                JUNCTION     0.15     0.25    13.88     1  11:28        0.25
  60012                JUNCTION     0.31     0.53    14.09     1  11:30        0.53
  60014                JUNCTION     0.35     0.61    13.72     1  11:33        0.61
  60017                JUNCTION     0.35     0.60    13.44     1  11:36        0.60
  60018                JUNCTION     0.34     0.58    13.11     1  11:39        0.58
  60019                JUNCTION     0.36     0.61    13.05     1  11:39        0.61
  60020                JUNCTION     0.39     0.64    13.04     1  11:39        0.64
  60021                JUNCTION     0.34     0.58    12.85     1  11:41        0.57
  60022                JUNCTION     0.50     0.69    12.49     1  11:40        0.69
  60023                JUNCTION     0.67     0.82    12.38     1  11:44        0.82
  60024                JUNCTION     0.92     1.30    12.54     1  11:47        1.18
  60031                JUNCTION     0.39     0.65    13.05     1  11:39        0.64
  60039                JUNCTION     0.93     1.17    12.40     1  12:53        1.15
  60040                JUNCTION     0.94     1.17    12.39     1  11:03        1.15
  60046                JUNCTION     0.01     0.02    16.14     1  02:40        0.02
  60077                JUNCTION     1.27     1.56    27.03     1  11:33        1.56
  60078                JUNCTION     0.14     0.22    25.69     1  11:33        0.22
  60079                JUNCTION     0.19     0.32    24.61     1  11:35        0.31
  60080                JUNCTION     0.20     0.32    23.36     1  11:35        0.32
  60081                JUNCTION     0.19     0.31    22.74     1  11:36        0.31
  60082                JUNCTION     0.34     3.27    23.20     1  10:36        0.92
  60083                JUNCTION     0.29     0.55    19.55     1  11:36        0.55
  60084                JUNCTION     0.24     0.41    18.79     1  11:39        0.41
  60085                JUNCTION     0.18     0.29    17.18     1  11:39        0.29
  60086                JUNCTION     0.31     0.55    15.12     1  11:28        0.55
  60087                JUNCTION     0.28     0.47    15.64     1  11:40        0.47
  60088                JUNCTION     0.19     0.30    15.37     1  11:40        0.30
  60089                JUNCTION     0.22     0.44    15.13     1  11:27        0.44
  6215                 JUNCTION     0.09     0.16    23.63     0  09:24        0.16
  6216                 JUNCTION     0.08     0.16    23.19     0  09:44        0.16
  6217                 JUNCTION     0.09     0.16    22.75     0  09:26        0.16
  6218                 JUNCTION     0.09     0.16    22.27     0  09:28        0.16
  6219                 JUNCTION     0.10     0.17    21.89     0  09:30        0.17
  6220                 JUNCTION     0.09     0.15    20.90     0  09:32        0.15
  6221                 JUNCTION     0.12     0.20    20.04     1  10:43        0.19
  6222                 JUNCTION     0.12     0.21    19.67     1  10:47        0.20
  6223                 JUNCTION     0.12     0.22    19.60     1  10:47        0.21
  6224                 JUNCTION     0.09     0.22    19.53     1  10:47        0.21
  6225                 JUNCTION     0.24     1.04    18.78     1  10:34        1.02
  6226                 JUNCTION     0.32     1.08    18.14     1  10:34        1.06
  6229                 JUNCTION     0.35     0.89    17.16     1  10:33        0.86
  6230                 JUNCTION     0.40     0.52    16.15     1  07:30        0.52
  6231                 JUNCTION     0.33     0.55    15.82     1  12:11        0.53
  6232                 JUNCTION     0.12     0.16    16.14     1  09:57        0.16
  6233                 JUNCTION     0.70     0.83    16.14     1  10:04        0.83
  6234                 JUNCTION     0.19     0.32    15.56     1  10:32        0.32
  6235                 JUNCTION     0.26     0.41    15.58     1  10:36        0.39
  6237                 JUNCTION     0.31     1.04    14.92     1  10:35        0.80
  6239                 JUNCTION     0.35     1.01    14.81     1  10:38        0.82
  6240                 JUNCTION     0.33     2.08    15.69     1  09:38        0.68
  6241                 JUNCTION     0.34     1.64    15.02     1  08:57        0.74
  6242                 JUNCTION     0.35     1.58    14.84     1  09:26        0.84
  6243                 JUNCTION     0.35     1.11    14.19     1  04:19        0.79
  6244                 JUNCTION     0.34     1.30    14.25     1  04:35        0.75
  6245                 JUNCTION     0.32     1.95    14.71     1  10:37        0.65
  6246                 JUNCTION     0.31     0.56    13.10     1  12:58        0.52
  6247                 JUNCTION     0.28     0.42    12.68     1  13:00        0.42
  6248                 JUNCTION     0.30     0.47    12.40     1  12:08        0.47
  6275                 JUNCTION     0.02     0.51    17.51     1  09:15        0.23
  6276                 JUNCTION     0.01     0.01    23.66     1  09:47        0.01
  6277                 JUNCTION     0.01     0.02    23.78     1  09:42        0.02
  6278                 JUNCTION     0.01     0.01    24.00     1  10:18        0.01
  6279                 JUNCTION     0.02     0.02    22.97     1  09:40        0.02
  6280                 JUNCTION     0.03     0.05    22.49     1  10:30        0.05
  6281                 JUNCTION     0.07     0.09    22.74     1  10:30        0.09
  6282                 JUNCTION     0.01     0.01    23.20     1  08:32        0.01
  6297                 JUNCTION     0.01     0.02    26.13     1  09:58        0.02
  6298                 JUNCTION     0.03     0.04    25.95     1  10:30        0.04
  6299                 JUNCTION     0.01     0.02    27.87     1  10:00        0.02
  6322                 JUNCTION     0.01     0.02    28.37     1  10:12        0.02
  6323                 JUNCTION     0.01     0.01    29.88     1  10:08        0.01
  63444                JUNCTION     0.01     0.01    23.82     1  09:54        0.01
  63446                JUNCTION     0.01     0.02    23.40     1  10:29        0.02
  6350                 JUNCTION     0.02     0.03    20.79     1  10:30        0.03
  63502                JUNCTION     0.01     0.01    17.51     1  09:42        0.01
  6351                 JUNCTION     0.02     0.02    21.20     1  10:02        0.02
  6352                 JUNCTION     0.02     0.03    18.94     1  10:30        0.03
  6353                 JUNCTION     0.01     0.02    19.87     1  10:13        0.02
  6354                 JUNCTION     0.02     0.03    19.31     1  10:19        0.03
  6355                 JUNCTION     0.01     0.02    19.59     1  10:18        0.02
  6356                 JUNCTION     0.01     0.01    20.61     1  10:02        0.01
  6357                 JUNCTION     0.01     0.02    29.56     1  10:30        0.02
  6358                 JUNCTION     0.01     0.01    29.92     1  10:12        0.01
  6359                 JUNCTION     0.02     0.02    29.38     1  10:30        0.02
  6360                 JUNCTION     0.01     0.01    29.76     1  10:12        0.01
  6361                 JUNCTION     0.01     0.01    30.38     1  10:22        0.01
  6362                 JUNCTION     0.01     0.02    30.02     1  10:30        0.02
  6363                 JUNCTION     0.01     0.01    30.15     1  10:02        0.01
  6364                 JUNCTION     0.00     0.01    30.44     1  09:52        0.01
  63741                JUNCTION     0.00     0.01    24.50     1  09:59        0.01
  6383                 JUNCTION     0.09     0.15    20.57     1  10:41        0.15
  6384                 JUNCTION     0.10     0.16    20.45     1  10:41        0.16
  6385                 JUNCTION     0.02     0.03    20.89     1  10:30        0.03
  6386                 JUNCTION     0.01     0.02    21.30     1  10:12        0.02
  6387                 JUNCTION     0.07     0.10    20.93     1  10:30        0.10
  6388                 JUNCTION     0.01     0.02    26.53     1  10:16        0.02
  6389                 JUNCTION     0.01     0.02    24.47     1  10:19        0.02
  6390                 JUNCTION     0.02     0.03    22.79     1  10:20        0.03
  6392                 JUNCTION     0.03     0.05    25.36     1  10:30        0.05
  6393                 JUNCTION     0.03     0.05    25.58     1  10:30        0.05
  6394                 JUNCTION     0.01     0.02    26.18     1  10:30        0.02
  6395                 JUNCTION     0.03     0.04    26.46     1  09:44        0.04
  6396                 JUNCTION     0.02     0.03    26.93     1  10:30        0.03
  6397                 JUNCTION     0.06     0.10    17.26     1  10:30        0.10
  6398                 JUNCTION     0.10     0.89    17.30     1  09:12        0.33
  6399                 JUNCTION     0.01     0.02    16.02     1  10:30        0.02
  6400                 JUNCTION     0.09     1.21    17.81     1  10:28        0.32
  6401                 JUNCTION     0.10     0.76    17.62     1  10:28        0.22
  6402                 JUNCTION     0.01     0.01    15.55     1  10:30        0.01
  6403                 JUNCTION     0.02     0.03    14.02     1  09:50        0.03
  6404                 JUNCTION     0.44     0.66    17.34     1  10:02        0.58
  6405                 JUNCTION     0.01     0.01    15.11     1  10:30        0.01
  6406                 JUNCTION     0.11     1.57    15.20     1  10:15        0.35
  6407                 JUNCTION     0.02     0.04    14.62     1  10:30        0.04
  6408                 JUNCTION     0.03     0.04    14.26     1  10:30        0.04
  6409                 JUNCTION     0.03     0.04    14.36     1  10:30        0.04
  6410                 JUNCTION     0.18     0.47    17.80     1  10:01        0.40
  6411                 JUNCTION     0.02     0.03    16.07     1  10:30        0.03
  6412                 JUNCTION     0.09     0.35    17.54     1  10:02        0.27
  6413                 JUNCTION     0.07     0.13    17.91     1  10:03        0.13
  6450                 JUNCTION     0.01     0.01    25.41     1  09:42        0.01
  6451                 JUNCTION     0.01     0.01    25.00     1  10:02        0.01
  6452                 JUNCTION     0.02     0.03    25.41     1  10:30        0.03
  6454                 JUNCTION     0.02     0.03    24.26     1  10:30        0.03
  6455                 JUNCTION     0.01     0.02    25.84     1  10:28        0.02
  6456                 JUNCTION     0.01     0.02    25.97     1  10:19        0.02
  6457                 JUNCTION     0.03     0.04    24.68     1  10:30        0.04
  64715                JUNCTION     0.17     0.27    20.60     1  10:36        0.27
  64717                JUNCTION     0.00     0.01    20.61     1  02:54        0.01
  6474                 JUNCTION     0.02     0.03    22.80     1  10:30        0.03
  6475                 JUNCTION     0.01     0.02    23.73     1  10:29        0.02
  64752                JUNCTION     0.21     0.39    19.47     1  10:47        0.39
  6476                 JUNCTION     0.01     0.01    24.65     1  10:12        0.01
  6477                 JUNCTION     0.01     0.02    24.38     1  10:22        0.02
  6478                 JUNCTION     0.11     0.18    23.85     1  10:30        0.18
  6479                 JUNCTION     0.03     0.05    23.87     1  10:30        0.05
  6480                 JUNCTION     0.02     0.03    24.16     1  10:24        0.03
  6481                 JUNCTION     0.02     0.03    24.63     1  10:25        0.03
  6482                 JUNCTION     0.01     0.02    28.02     1  10:25        0.02
  6489                 JUNCTION     0.03     0.05    27.88     1  10:28        0.05
  6490                 JUNCTION     0.02     0.03    28.46     1  10:30        0.03
  6491                 JUNCTION     0.01     0.02    27.32     1  10:30        0.02
  6492                 JUNCTION     0.01     0.01    29.07     1  09:54        0.01
  6493                 JUNCTION     0.01     0.02    27.69     1  10:30        0.02
  6494                 JUNCTION     0.02     0.03    28.89     1  10:30        0.03
  6495                 JUNCTION     0.02     0.03    28.20     1  10:30        0.03
  6496                 JUNCTION     0.01     0.01    28.70     1  10:18        0.01
  6497                 JUNCTION     0.01     0.01    29.20     1  10:30        0.01
  6498                 JUNCTION     0.02     0.02    33.98     1  10:30        0.02
  6499                 JUNCTION     0.02     0.02    34.27     1  10:24        0.02
  6501                 JUNCTION     0.01     0.02    34.66     1  10:24        0.02
  6526                 JUNCTION     0.01     0.01    16.65     1  10:14        0.01
  65265                JUNCTION     0.94     1.67    14.67     1  02:36        1.65
  65267                JUNCTION     0.94     1.69    14.69     1  02:19        1.65
  6527                 JUNCTION     0.02     0.03    16.60     1  10:28        0.03
  6528                 JUNCTION     0.01     0.02    16.83     1  10:04        0.02
  6529                 JUNCTION     0.02     0.03    18.42     1  10:30        0.03
  6530                 JUNCTION     0.01     0.02    19.02     1  10:18        0.02
  6531                 JUNCTION     0.01     0.01    19.21     1  09:58        0.01
  6532                 JUNCTION     0.01     0.01    19.44     1  09:58        0.01
  6534                 JUNCTION     0.00     0.01    19.66     1  09:54        0.01
  6535                 JUNCTION     0.08     0.26    20.38     1  10:33        0.26
  6536                 JUNCTION     0.07     0.12    20.45     1  10:30        0.12
  6537                 JUNCTION     0.07     0.11    20.76     1  10:30        0.11
  6538                 JUNCTION     0.07     0.10    21.09     1  10:30        0.10
  6539                 JUNCTION     0.05     0.08    21.93     1  10:30        0.08
  6540                 JUNCTION     0.03     0.04    22.02     1  10:28        0.04
  6541                 JUNCTION     0.02     0.03    22.47     1  10:30        0.03
  6542                 JUNCTION     0.02     0.03    22.20     1  10:24        0.03
  6570                 JUNCTION     0.01     0.01    23.01     1  09:56        0.01
  6571                 JUNCTION     0.01     0.02    22.67     1  10:30        0.02
  6572                 JUNCTION     0.01     0.01    24.71     1  09:39        0.01
  6573                 JUNCTION     0.01     0.01    23.69     1  09:44        0.01
  66357                JUNCTION     0.24     0.39    23.31     1  11:35        0.39
  66360                JUNCTION     0.11     0.17    23.62     1  10:30        0.17
  66362                JUNCTION     0.10     0.16    24.31     1  10:30        0.16
  66365                JUNCTION     0.09     0.15    25.88     1  10:30        0.15
  66368                JUNCTION     0.10     0.15    26.28     1  10:30        0.15
  66371                JUNCTION     0.10     0.15    26.60     1  10:30        0.15
  66376                JUNCTION     0.09     0.15    25.12     1  10:30        0.15
  66377                JUNCTION     0.08     0.13    27.85     1  10:30        0.13
  66378                JUNCTION     0.11     0.18    28.38     1  10:30        0.18
  66379                JUNCTION     0.11     0.18    28.74     1  10:31        0.18
  66381                JUNCTION     0.11     0.18    29.09     1  10:31        0.18
  66382                JUNCTION     0.11     0.18    29.41     1  10:30        0.18
  66383                JUNCTION     0.11     0.18    29.78     1  10:30        0.18
  66384                JUNCTION     0.05     0.08    31.58     1  10:30        0.08
  66385                JUNCTION     0.10     0.15    31.96     1  10:30        0.15
  66386                JUNCTION     0.09     0.15    32.50     1  10:30        0.15
  66387                JUNCTION     0.09     0.15    33.04     1  10:30        0.15
  66388                JUNCTION     0.09     0.14    33.40     1  10:30        0.14
  66422                JUNCTION     0.10     0.16    33.47     1  10:30        0.16
  66424                JUNCTION     0.06     0.09    35.58     1  10:30        0.09
  66426                JUNCTION     0.08     0.13    36.28     1  10:30        0.13
  6644                 JUNCTION     0.01     0.02    31.56     1  10:30        0.02
  6645                 JUNCTION     0.01     0.01    32.18     1  09:48        0.01
  66463                JUNCTION     0.05     0.08    30.38     1  10:30        0.08
  66465                JUNCTION     0.05     0.08    30.14     1  10:30        0.08
  6653                 JUNCTION     0.02     0.02    24.64     1  10:30        0.02
  6654                 JUNCTION     0.02     0.04    32.75     1  10:09        0.04
  6655                 JUNCTION     0.02     0.03    34.60     1  10:18        0.03
  6656                 JUNCTION     0.02     0.03    36.73     1  10:02        0.03
  6657                 JUNCTION     0.02     0.03    38.54     1  10:06        0.03
  6658                 JUNCTION     0.01     0.01    37.72     1  10:30        0.01
  6659                 JUNCTION     0.01     0.01    37.03     1  10:29        0.01
  6660                 JUNCTION     0.01     0.02    41.16     1  10:04        0.02
  6661                 JUNCTION     0.02     0.03    39.63     1  10:25        0.03
  6662                 JUNCTION     0.01     0.01    37.67     1  10:17        0.01
  6663                 JUNCTION     0.01     0.01    43.94     1  10:02        0.01
  6664                 JUNCTION     0.01     0.02    44.52     1  09:56        0.02
  6671                 JUNCTION     0.03     0.05    38.38     1  10:30        0.05
  6672                 JUNCTION     0.02     0.04    39.70     1  10:30        0.04
  6673                 JUNCTION     0.03     0.05    41.10     1  10:30        0.05
  66743                JUNCTION     0.09     0.14    36.51     1  10:30        0.14
  66746                JUNCTION     0.08     0.13    37.48     1  10:30        0.13
  66748                JUNCTION     0.08     0.12    38.15     1  10:29        0.12
  66750                JUNCTION     0.07     0.12    39.07     1  10:29        0.12
  66752                JUNCTION     0.07     0.11    40.04     1  10:27        0.11
  66754                JUNCTION     0.07     0.11    40.52     1  10:28        0.11
  66755                JUNCTION     0.07     0.11    41.32     1  10:28        0.11
  66758                JUNCTION     0.07     0.11    42.04     1  10:27        0.11
  66759                JUNCTION     0.06     0.10    42.31     1  10:25        0.10
  66763                JUNCTION     0.05     0.07    42.57     1  10:23        0.07
  66769                JUNCTION     0.03     0.04    37.83     1  10:30        0.04
  66770                JUNCTION     0.02     0.04    38.46     1  10:30        0.04
  66771                JUNCTION     0.02     0.03    39.03     1  10:30        0.03
  66772                JUNCTION     0.02     0.02    40.12     1  10:30        0.02
  66775                JUNCTION     0.01     0.02    40.62     1  10:26        0.02
  66780                JUNCTION     0.02     0.03    39.62     1  10:30        0.03
  6703                 JUNCTION     0.01     0.02    26.57     1  10:24        0.02
  6708                 JUNCTION     0.05     0.08    31.46     1  10:30        0.08
  6709                 JUNCTION     0.05     0.08    31.83     1  10:30        0.08
  6710                 JUNCTION     0.05     0.08    32.03     1  10:30        0.08
  6711                 JUNCTION     0.05     0.07    32.51     1  10:30        0.07
  6712                 JUNCTION     0.03     0.05    33.87     1  10:30        0.05
  6713                 JUNCTION     0.03     0.05    34.93     1  10:30        0.05
  6714                 JUNCTION     0.03     0.04    35.59     1  10:30        0.04
  6715                 JUNCTION     0.27     0.29    35.87     1  10:30        0.29
  6716                 JUNCTION     0.04     0.06    35.70     1  10:30        0.06
  67186                JUNCTION     0.01     0.02    39.15     1  10:05        0.02
  67189                JUNCTION     0.01     0.02    39.70     1  09:50        0.02
  6747                 JUNCTION     0.01     0.01    41.46     1  10:12        0.01
  6748                 JUNCTION     0.01     0.02    39.60     1  09:58        0.02
  6749                 JUNCTION     0.01     0.02    37.57     1  10:03        0.02
  6750                 JUNCTION     0.01     0.01    39.78     1  10:18        0.01
  6751                 JUNCTION     0.01     0.01    37.50     1  10:15        0.01
  6752                 JUNCTION     0.02     0.02    34.72     1  10:24        0.02
  6753                 JUNCTION     0.01     0.01    32.63     1  10:19        0.01
  6754                 JUNCTION     0.01     0.01    32.27     1  10:25        0.01
  6755                 JUNCTION     0.01     0.02    30.17     1  10:29        0.02
  6756                 JUNCTION     0.01     0.02    31.00     1  10:29        0.02
  6757                 JUNCTION     0.01     0.01    32.07     1  10:30        0.01
  6771                 JUNCTION     0.01     0.01    17.77     1  09:58        0.01
  6790                 JUNCTION     0.02     0.04    23.79     1  10:30        0.04
  6791                 JUNCTION     0.02     0.03    24.16     1  10:18        0.03
  6792                 JUNCTION     0.02     0.03    24.39     1  10:29        0.03
  6793                 JUNCTION     0.01     0.01    25.03     1  10:08        0.01
  6794                 JUNCTION     0.02     0.02    24.56     1  10:12        0.02
  6795                 JUNCTION     0.01     0.02    24.77     1  10:12        0.02
  6796                 JUNCTION     0.01     0.02    25.05     1  09:58        0.02
  6801                 JUNCTION     0.01     0.01    41.46     1  10:29        0.01
  6811                 JUNCTION     0.06     0.10    19.50     1  10:30        0.10
  6812                 JUNCTION     0.05     0.08    18.98     1  10:30        0.08
  6813                 JUNCTION     0.04     0.07    20.32     1  10:30        0.07
  6814                 JUNCTION     0.08     0.10    21.11     1  10:30        0.10
  6815                 JUNCTION     0.04     0.06    22.00     1  10:30        0.06
  6816                 JUNCTION     0.05     0.08    22.33     1  10:30        0.08
  6817                 JUNCTION     0.03     0.05    23.90     1  10:30        0.05
  6818                 JUNCTION     0.03     0.04    27.19     1  10:30        0.04
  6819                 JUNCTION     0.02     0.03    20.41     1  10:30        0.03
  6820                 JUNCTION     0.02     0.03    20.81     1  10:30        0.03
  6821                 JUNCTION     0.01     0.02    21.00     1  09:52        0.02
  6833                 JUNCTION     0.02     0.04    64.96     1  10:30        0.04
  6834                 JUNCTION     0.02     0.04    64.26     1  10:27        0.04
  6835                 JUNCTION     0.02     0.04    63.71     1  10:30        0.04
  6836                 JUNCTION     0.02     0.04    63.22     1  10:30        0.04
  6837                 JUNCTION     0.01     0.02    61.99     1  10:29        0.02
  6852                 JUNCTION     0.01     0.01    28.19     1  10:30        0.01
  6853                 JUNCTION     0.00     0.01    26.99     1  10:12        0.01
  6854                 JUNCTION     0.00     0.01    26.92     1  09:55        0.01
  6855                 JUNCTION     0.01     0.01    28.86     1  10:30        0.01
  6856                 JUNCTION     0.02     0.02    24.77     1  10:30        0.02
  6857                 JUNCTION     0.02     0.02    24.65     1  10:30        0.02
  6858                 JUNCTION     0.01     0.02    25.19     1  10:30        0.02
  6885                 JUNCTION     0.01     0.02    34.53     1  10:30        0.02
  6886                 JUNCTION     0.01     0.01    35.21     1  10:18        0.01
  6887                 JUNCTION     0.02     0.03    33.76     1  10:24        0.03
  6888                 JUNCTION     0.01     0.01    38.11     1  09:49        0.01
  6889                 JUNCTION     0.01     0.01    36.62     1  10:08        0.01
  6890                 JUNCTION     0.02     0.02    34.46     1  10:24        0.02
  6894                 JUNCTION     0.07     0.09    15.09     1  10:47        0.09
  6895                 JUNCTION     0.01     0.02    15.48     1  09:57        0.02
  69154                JUNCTION     0.01     0.02    36.35     1  10:30        0.02
  6964                 JUNCTION     0.05     0.07    27.02     1  10:30        0.07
  6965                 JUNCTION     0.06     0.09    27.25     1  10:30        0.09
  6966                 JUNCTION     0.04     0.06    27.50     1  10:30        0.06
  6967                 JUNCTION     0.03     0.04    29.33     1  10:30        0.04
  6968                 JUNCTION     0.03     0.05    30.10     1  10:30        0.05
  6969                 JUNCTION     0.03     0.05    30.77     1  10:30        0.05
  6970                 JUNCTION     0.03     0.05    31.32     1  10:30        0.05
  6971                 JUNCTION     0.03     0.04    33.75     1  10:30        0.04
  6972                 JUNCTION     0.03     0.04    34.37     1  10:30        0.04
  6973                 JUNCTION     0.03     0.04    35.80     1  10:30        0.04
  6974                 JUNCTION     0.02     0.03    38.03     1  10:30        0.03
  6975                 JUNCTION     0.01     0.01    41.71     1  10:30        0.01
  6977                 JUNCTION     0.01     0.02    35.75     1  10:27        0.02
  6996                 JUNCTION     0.02     0.03    29.60     1  10:30        0.03
  6997                 JUNCTION     0.04     0.05    29.68     1  10:30        0.05
  6998                 JUNCTION     0.03     0.05    30.22     1  10:30        0.05
  6999                 JUNCTION     0.03     0.05    30.64     1  10:30        0.05
  7002                 JUNCTION     0.01     0.02    28.38     1  10:30        0.02
  7003                 JUNCTION     0.02     0.03    27.94     1  10:30        0.03
  7004                 JUNCTION     0.03     0.04    27.60     1  10:30        0.04
  7005                 JUNCTION     0.03     0.05    27.07     1  10:30        0.05
  7006                 JUNCTION     0.04     0.06    26.66     1  10:30        0.06
  7007                 JUNCTION     0.04     0.06    26.24     1  10:30        0.06
  7008                 JUNCTION     0.03     0.05    25.80     1  10:30        0.05
  7009                 JUNCTION     0.03     0.05    24.92     1  09:52        0.05
  7010                 JUNCTION     0.05     0.08    24.42     1  10:30        0.08
  7011                 JUNCTION     0.11     0.18    23.88     1  10:30        0.18
  7012                 JUNCTION     0.11     0.17    23.81     1  10:30        0.17
  7013                 JUNCTION     0.05     0.08    22.68     1  10:30        0.08
  7014                 JUNCTION     0.01     0.01    21.57     1  09:55        0.01
  7015                 JUNCTION     0.02     0.03    21.32     1  10:30        0.03
  7016                 JUNCTION     0.02     0.04    20.74     1  10:30        0.04
  7017                 JUNCTION     0.01     0.02    20.52     1  10:24        0.02
  7018                 JUNCTION     0.01     0.01    20.29     1  10:13        0.01
  7020                 JUNCTION     0.03     0.04    19.76     1  10:30        0.04
  7021                 JUNCTION     0.01     0.02    19.62     1  10:30        0.02
  7022                 JUNCTION     0.02     0.03    19.74     1  10:30        0.03
  7023                 JUNCTION     0.01     0.01    19.69     1  10:13        0.01
  7024                 JUNCTION     0.01     0.02    19.05     1  10:30        0.02
  7025                 JUNCTION     0.01     0.01    18.71     1  10:16        0.01
  7026                 JUNCTION     0.01     0.01    18.63     1  10:29        0.01
  7027                 JUNCTION     0.01     0.01    19.01     1  10:30        0.01
  7028                 JUNCTION     0.02     0.02    18.46     1  10:30        0.02
  7029                 JUNCTION     0.01     0.02    18.64     1  10:30        0.02
  7030                 JUNCTION     0.01     0.02    18.42     1  10:30        0.02
  7031                 JUNCTION     0.06     0.11    18.41     1  10:30        0.11
  7032                 JUNCTION     0.02     0.02    18.17     1  10:30        0.02
  7033                 JUNCTION     0.06     0.11    18.16     1  10:30        0.11
  7034                 JUNCTION     0.01     0.02    17.07     1  10:06        0.02
  7062                 JUNCTION     0.05     0.07    21.33     0  09:32        0.07
  7063                 JUNCTION     0.01     0.02    21.79     1  10:24        0.02
  7064                 JUNCTION     0.01     0.02    21.66     1  10:30        0.02
  7065                 JUNCTION     0.06     0.10    21.26     1  10:30        0.10
  7066                 JUNCTION     0.03     0.04    22.29     1  10:30        0.04
  7069                 JUNCTION     0.02     0.04    23.21     1  10:30        0.04
  7070                 JUNCTION     0.02     0.02    24.12     1  10:30        0.02
  7071                 JUNCTION     0.02     0.03    23.78     1  10:30        0.03
  7072                 JUNCTION     0.02     0.03    24.13     1  10:30        0.03
  7073                 JUNCTION     0.01     0.02    24.61     1  10:30        0.02
  7074                 JUNCTION     0.03     0.04    24.33     1  10:30        0.04
  7075                 JUNCTION     0.01     0.01    24.47     1  10:19        0.01
  7076                 JUNCTION     0.10     0.13    24.75     1  10:28        0.13
  7077                 JUNCTION     0.01     0.02    25.70     1  10:12        0.02
  7078                 JUNCTION     0.11     0.13    25.42     1  09:50        0.13
  7079                 JUNCTION     0.03     0.04    25.48     1  09:48        0.04
  7080                 JUNCTION     0.30     0.32    26.06     1  09:47        0.32
  7081                 JUNCTION     0.13     0.15    26.06     1  09:46        0.15
  7082                 JUNCTION     0.01     0.01    26.05     1  10:11        0.01
  7083                 JUNCTION     0.03     0.04    26.06     1  09:45        0.04
  7085                 JUNCTION     0.02     0.02    25.72     1  10:30        0.02
  7086                 JUNCTION     0.02     0.04    25.44     1  10:30        0.04
  7087                 JUNCTION     0.08     0.12    25.01     1  10:30        0.12
  7088                 JUNCTION     0.02     0.03    27.64     1  10:30        0.03
  7089                 JUNCTION     0.01     0.02    30.15     1  10:30        0.02
  7090                 JUNCTION     0.01     0.02    31.02     1  10:30        0.02
  7091                 JUNCTION     0.01     0.01    31.85     1  10:30        0.01
  7092                 JUNCTION     0.01     0.01    32.11     1  09:49        0.01
  7132                 JUNCTION     0.01     0.02    24.09     1  10:08        0.02
  7133                 JUNCTION     0.01     0.02    23.48     1  10:25        0.02
  7134                 JUNCTION     0.01     0.01    23.61     1  10:06        0.01
  7135                 JUNCTION     0.02     0.02    22.52     1  10:25        0.02
  7136                 JUNCTION     0.01     0.02    23.27     1  10:25        0.02
  7137                 JUNCTION     0.04     0.06    22.33     1  10:30        0.06
  7138                 JUNCTION     0.04     0.06    22.73     1  10:30        0.06
  7139                 JUNCTION     0.04     0.06    22.85     1  10:30        0.06
  7140                 JUNCTION     0.05     0.06    23.49     1  10:26        0.06
  7141                 JUNCTION     0.01     0.01    24.40     1  10:24        0.01
  71412                JUNCTION     0.01     0.01    13.72     1  10:05        0.01
  7142                 JUNCTION     0.01     0.02    23.55     1  10:21        0.02
  7143                 JUNCTION     0.01     0.01    24.07     1  10:04        0.01
  7144                 JUNCTION     0.04     0.06    23.13     1  10:30        0.06
  7145                 JUNCTION     0.02     0.03    23.51     1  10:30        0.03
  7146                 JUNCTION     0.02     0.02    24.42     1  10:30        0.02
  7147                 JUNCTION     0.02     0.02    24.11     1  10:30        0.02
  7151                 JUNCTION     0.02     0.03    20.87     1  10:27        0.03
  7152                 JUNCTION     0.02     0.02    24.57     1  10:30        0.02
  7153                 JUNCTION     0.01     0.02    25.02     1  10:27        0.02
  7154                 JUNCTION     0.01     0.01    29.03     1  10:30        0.01
  7155                 JUNCTION     0.02     0.03    28.48     1  10:30        0.03
  7156                 JUNCTION     0.02     0.02    29.21     1  10:30        0.02
  7157                 JUNCTION     0.02     0.02    29.31     1  10:29        0.02
  7158                 JUNCTION     0.01     0.01    32.35     1  10:04        0.01
  7159                 JUNCTION     0.02     0.02    31.47     1  10:30        0.02
  7160                 JUNCTION     0.01     0.02    31.86     1  10:30        0.02
  7171                 JUNCTION     0.02     0.02    23.89     1  10:03        0.02
  7174                 JUNCTION     0.01     0.02    24.43     1  09:47        0.02
  7175                 JUNCTION     0.01     0.01    24.97     1  10:05        0.01
  7176                 JUNCTION     0.23     0.26    24.43     1  09:52        0.26
[...]
  13443                       3.64      3.64      6.05      0.01         0.03
  13444                       0.01      0.01      3.63      0.01         0.01
  13445                       3.39      3.39      3.64      3.17         2.73
  13446                       3.39      3.66      3.39      6.10         3.37
  13447                       3.66      3.74      3.66      4.83         3.66
  13448                       2.83      2.83      3.74      0.01         0.01
  13449                       1.97      1.97      2.83      0.01         0.01
  13450                       0.01      0.01      2.24      0.01         0.01
  13451                       1.83      1.83      1.97      0.01         0.16
  13452                       0.59      0.59      1.83      0.01         0.01
  13453                       0.01      0.01      0.59      0.01         0.01
  13490                       0.01      0.01     36.44      0.01         0.01
  13500                       0.01      0.01     45.41      0.01         0.01
  28495                       0.01      0.01     46.50      0.01         0.01
  28496                       0.01      0.01      1.89      0.01         0.01
  28497                       1.89      1.89      7.03      0.01         0.01
  28498                       7.03      7.03     46.50      0.01         0.01
  28499                      19.99     19.99     20.97      3.33         3.33
  28502                       8.67      8.67     11.67      0.30         0.53
  28503                       0.01      0.01     20.27      0.01         0.01
  28504                       0.01     20.27      0.01     20.26         0.01
  28522                       0.01      0.01     20.35      0.01         0.01
  28678                       0.01      0.01     42.96      0.01         0.01
  28679                      14.20     14.20     18.28      0.02         1.64
  28680                       3.02      3.02      4.88      2.07         0.59
  36508                       0.01     20.21      0.01     21.32         0.01
  39998                       0.01      0.01     14.93      0.01         0.01
  40015                      14.93     14.93     20.52      0.01         0.07
  40793                       0.01      0.01     21.54      0.01         0.01
  47353                      20.70     20.70     21.07      0.01         0.01
  47354                      20.42     20.42     20.68      0.01         0.01
  47355                      20.04     20.04     20.37      0.01         0.01
  47356                      20.10     20.10     20.32      0.01         0.01
  47357                      20.32     20.32     20.43      0.01         0.01
  47358                      20.51     20.51     20.82      0.01         0.01
  47359                      20.86     20.86     21.05      0.01         0.01
  47360                      19.99     19.99     20.20      0.01         0.01
  47361                      20.25     20.25     20.82      0.01         0.01
  47362                      20.15     20.15     20.21      0.01         0.01
  47363                      20.09     20.09     20.40      0.01         0.01
  47376                      20.06     20.06     20.10      0.01         0.01
  47378                      21.09     21.09     21.27      0.01         0.01
  47379                      22.23     22.23     22.52      0.01         0.01
  48638                       0.01      0.01     46.46      0.01         0.01
  48640                       0.01      0.01     21.16      0.01         0.01
  49219                       0.01      0.01     21.31      0.01         0.01
  49220                       0.01      0.01      0.01     21.19         0.01
  50989                       0.01      0.01      0.01     20.42         0.01
  51554                      19.29     19.32     19.42     18.48        12.10
  53821                      20.41     20.41     20.63      0.01         0.01
  53823                      20.25     20.25     20.58      0.01         0.01
  53825                      20.65     20.65     20.97      0.01         0.01
  53826                      21.01     21.01     21.21      0.01         0.01
  53828                      21.25     21.25     21.34      0.01         0.01
  53829                      21.36     21.36     21.73      0.01         0.01
  54198                      18.18     18.18     23.85      0.01         0.01
  54205                       0.01      0.01      1.17      0.01         0.01
  54973                       0.01      0.01     21.31      0.01         0.01
  57526T-FAUL_W               0.01      0.01     44.73      0.01         0.01
  59990                       6.60      6.60      6.88      1.23         1.09
  59999                      17.55     17.55     18.11      0.65         4.81
  60000                      18.11     18.11     18.20      0.18         0.61
  60025                       0.01      0.01      0.01      2.04         0.01
  60035                       0.01      0.01      0.01      2.30         0.01
  60038                       0.01      0.01     39.11      0.01         0.01
  60041                      39.68     39.69     39.76      0.01        18.84
  60042                      39.76     39.76     39.80      0.01         9.24
  60043O-SGR                 39.79     39.80     39.85      0.01        23.73
  60209                       0.01      0.01      5.91      0.01         0.01
  60210                       2.05      7.00      2.05     16.98         2.05
  60211                       0.01      2.39      0.01      9.62         0.01
  60216                       0.01      0.01      0.01     17.09         0.01
  60219                       0.01      0.01      0.01      5.05         0.01
  6027NR                      0.01      0.01      3.42      0.01         0.01
  64718                       0.01      0.01     30.06      0.01         0.01
  65052                       0.01      0.01      0.01      6.25         0.01
  65266                      20.19     20.19     20.42      0.01         0.01
  65269T-HITA                20.19     20.19     20.42      0.01         0.01
  9058                        0.01      0.01      0.01      3.01         0.01
  9059                        0.01      0.01      0.01      2.74         0.01
  9060                        0.01      0.01      0.01      3.80         0.01
  9061                        0.01      0.01      0.01      4.07         0.01
  9062                        0.01      0.01     21.51      0.01         0.01
  9063                        6.95      6.95     15.47      2.08         1.97
  9064                       15.59     15.59     19.98      5.36         5.36
  9068                       19.98     19.98     22.13      3.24         3.16
  9069                       38.47     38.47     45.56      0.01         0.01
  9070                       20.65     20.98     20.65     22.97        20.65
  9071                       21.42     21.42     41.63      0.01         0.01
  9073                       23.48     23.48     26.79      0.01         0.01
  9074                        0.01     20.65      0.01     22.82         0.01
  9076                       16.64     17.02     17.55      0.01         5.04
  9084                       18.20     18.20     18.40      1.53         3.76
  9085                       18.39     18.40     18.92      0.47         2.99
  9086                       18.90     18.92     19.21      0.64         8.01
  9087                       19.21     19.21     19.32      0.20         6.44
  9088                       19.31     19.42     19.31     19.13        11.88
  9089                       15.39     19.31     15.39     20.34        15.34
  9090                        0.13     15.39      0.13     20.34         0.13
  9091                        0.01     18.81      0.01     20.21         0.01
  9092                        0.01      0.01      0.01     19.53         0.01
  9093O-SGRAV                 0.01      0.01      0.38      0.01         0.01
  9121                        2.44      2.44     19.79      0.01         0.01
  9199                        0.01      0.01      1.89      0.01         0.01
  9249                        0.01      0.01     46.18      0.01         0.01
  9255                        2.14      2.14      3.02      2.90         0.15
  9257                        1.67      1.69      2.14      3.87         0.12
  9258                        0.21      0.40      0.63      4.11         0.01
  9260                        0.01      0.01     11.22      0.01         0.01
  9261                        0.22      0.94      0.40      5.21         0.20
  9267                       11.22     11.22     45.09      0.01         0.02
  9274                        0.74     21.08      0.74     21.34         0.74
  9276                        0.84      2.81      0.94      5.44         0.75
  9277                        0.01      0.01      0.07      0.15         0.01
  9346                        0.01      0.01      0.01      2.81         0.01
  9347                        0.01      0.01     46.13      0.01         0.01
  9348                        0.01      0.01     20.85      0.01         0.01
  9368                        0.01      0.01     45.91      0.01         0.01
  9403                        0.01      0.01      4.19      0.01         0.01
  9409                        1.15      1.15      3.73      0.01         0.01
  9410                        0.01      0.01      1.15      0.01         0.01
  F12499                     42.30     42.32     42.40     12.70         0.39
  F12504                     15.47     15.50     42.32      9.29         0.40
  F12505                     16.58     16.75     23.12     11.63        11.90
  F12506                     23.00     23.12     23.46     11.61        14.32
  F12507                     23.41     23.46     24.15     11.09        12.23
  F12508                     23.53     23.56     24.15     11.42         0.94
  F12819                     12.82     12.83     23.56     21.17         1.39
  F12820                     22.50     22.50     23.20      1.09         3.85
  F12821                     23.20     23.20     24.26      8.77         8.99
  F12824                     24.20     24.26     24.22     24.04        19.79
  F12825                     24.22     24.22     25.40      8.58         8.99
  F12826                     25.40     25.40     46.50      0.04         2.49
  F12827                     27.78     27.79     27.80     24.97        20.66
  F12828                     27.80     27.80     46.30      0.02         1.85
  F12829                     46.22     46.30     46.28     24.91        28.28
  F12830                     46.26     46.28     46.47      8.86         9.66
  F12833                     46.40     46.43     46.41     32.18        29.59
  F12834                     46.40     46.41     46.49      0.67         0.55
  F12835                     46.49     46.49     46.49     29.01        32.55
  F12836                     46.42     46.43     46.49      1.97         1.16
  F12837                     46.38     46.43     46.39     29.88        33.10
  F12839                     46.38     46.39     46.49      2.23         1.16
  F12840                     46.49     46.49     46.50      8.98        10.04
  F12841                     46.50     46.50     46.50     31.78        31.76
  F12842                     46.43     46.45     46.48      6.84         1.69
  F12843                     46.40     46.45     46.43     32.82        23.74
  F12844                     46.42     46.49     46.43     22.36         1.38
  F12845                     46.35     46.37     46.41     31.91        30.57
  F12846                     45.83     45.84     46.41     10.86         0.04
  F12847                     45.81     45.84     45.84     38.83        36.41
  F12848                     25.74     25.74     45.84     10.96         0.01
  F12849                     25.66     25.74     25.66     33.91        23.37
  F12851                     24.33     25.66     24.33     44.06        24.33
  F12852                     46.43     46.45     46.48      1.97         2.22
  F12853                     45.55     45.56     46.45      9.69         0.02
  F12854                     44.46     44.46     45.55      0.01         0.01
  F12855O-FAIR                1.65      1.65     44.46      0.01         0.01
  F36492                     46.40     46.47     46.43     37.11        37.13
  F50336                     44.45     44.45     44.48      1.33        16.58
  F50337                     44.45     44.45     44.45     35.93        22.24
  F50338                     44.43     44.45     44.43     36.37        24.24
  F50339                     44.40     44.43     44.85     40.32        22.96
  F50340                     44.85     44.85     45.00     40.91        29.48
  F50341                     45.00     45.00     45.12     41.11        26.47
  F50342                     45.12     45.12     45.21     41.08        37.76
  F50343                     45.21     45.21     45.31     41.34        37.15
  F50344                     45.31     45.31     45.42     41.49        41.70
  F50345                     45.42     45.42     45.53     41.57        42.09
  F50346                     45.53     45.53     45.64     41.97        42.06
  F50347                     45.64     45.64     45.76     41.62        42.18
  F50348                     45.76     45.76     45.87     41.86        42.03
  F50349O-HIT                42.52     42.52     45.87      0.01         0.01
  F50962EE0-DRY              19.36     19.36     41.89     19.17        19.12
  F51557                     20.27     20.32     21.46     20.33        20.16
  F51558                     21.28     21.46     21.29     26.51        20.66
  F51559O-DEC                21.29     21.29     39.24     20.23        20.22
  F56499EE                   21.86     21.86     46.07      0.01         0.01
  F60099                     44.24     44.24     44.38     43.76         4.16
  F60102                     43.72     43.72     43.78     15.86        18.72
  F60103                     43.72     43.72     43.75      0.01         0.46
  F60104                     43.65     43.65     45.37      0.01         0.01
  F60161                     43.75     43.75     45.36      0.01         0.11
  F60171                     19.18     43.65     19.18      0.01         0.06
  F60172                     43.63     43.63     43.65      0.01         0.01
  F60173                     43.63     43.63     43.63      0.25        18.90
  F60174                     43.63     43.63     43.63      0.42        24.57
  F60175                     43.63     43.63     43.73      0.01         0.03
  F60177B                    45.38     45.38     45.46      0.01         0.01
  F60196                     43.73     43.73     43.81     20.93         0.05
  F60197                     41.25     41.25     41.25     30.50        31.30
  F60198                     40.33     40.33     41.03     20.42         0.02
  F60201                     40.59     40.59     40.62     20.75        26.49
  F60202                     40.52     40.52     40.72      4.32         9.88
  F60358                     40.17     46.10     40.17      0.01        32.96
  F60494                     43.78     44.48     43.78      0.01        35.64
  F60497                     20.32     20.32     43.66      0.01         0.01
  F60952                     42.50     42.50     42.50      0.01         1.38
  F80473                     25.39     25.40     25.40     24.04        20.03
  F83291                     46.44     46.45     46.48     11.46         0.91
  F83293                     24.33     24.33     46.39      9.76        10.81
  F83295                     46.36     46.39     46.44      1.97         2.05
  F83298                     46.32     46.33     46.49      1.64         1.70
  F83299                     46.27     46.33     46.37     43.73        38.90
  F83317                     12.83     12.83     21.23      0.01         0.25
  F83319                     21.01     21.23     22.50      9.66        11.64
  F83320                     26.94     26.94     27.79      9.15         9.08
  F83322                     26.94     26.94     46.50      0.47         0.25
  F83335                     14.58     15.50     16.75     12.35        11.71
  F83373                     43.65     43.65     44.75     17.58        19.04
  F83374                     43.81     43.81     44.74     21.38         0.09
  F83388                     43.73     43.73     44.07     19.20        19.59
  F83389                     43.98     43.99     44.07     21.64         0.15
  F83390                     42.68     42.68     43.99      7.55         0.01
  F83391                     42.68     42.68     43.36      0.01         0.01
  F83392                     43.36     43.36     43.47     20.57        20.74
  F83393                     43.40     43.40     43.47      5.42         0.01
  F83394                     42.67     42.67     43.39      0.01         0.01
  F83395                     42.67     42.67     42.67     43.07        33.16
  F83396                     42.67     42.67     42.70      0.01         0.01
  F83397                     42.70     42.70     42.73     25.32        29.73
  F83398                     42.09     42.09     42.72     19.38         0.01
  F83399                     40.93     40.94     42.08     14.32         0.01
  F83400                     40.94     40.94     41.25     19.18        19.55
  F83401                     40.32     40.33     40.58     20.93        21.07
  F83409                     40.72     40.72     40.77      0.01         0.01
  F83410                     40.76     40.76     40.77     39.79         0.34
  F83411                     40.67     40.67     40.76      0.01         0.01
  F9263O-BRO                 21.41     21.41     45.02      6.91         0.01
  F9268                      45.02     45.02     45.43      6.91         0.01
  F9270                      45.74     45.74     45.94      6.88         0.01
  F9271                      45.43     45.43     45.74      6.89         0.01
  FSCHDP                     29.24     29.24     46.50      0.01        17.38
  
  
  ***************
  Pumping Summary
  ***************
  
  ---------------------------------------------------------------------------------------------------------
                                                  Min       Avg       Max     Total     Power    % Time Off
                        Percent   Number of      Flow      Flow      Flow    Volume     Usage    Pump Curve
  Pump                 Utilized   Start-Ups       LPS       LPS       LPS  10^6 ltr     Kw-hr    Low   High
  ---------------------------------------------------------------------------------------------------------
  BATTY                   41.50           1      0.00      0.61      0.61     0.042      4.32    0.0    0.0
  BROOK                   14.99          57      0.00     10.08     31.00     0.253      6.10    0.0    0.0
  DECAS                   44.67          83      0.00     14.43     37.00     1.090     21.70    0.0    0.0
  DECASB                   0.00           0      0.00      0.00      0.00     0.000      0.00    0.0    0.0
  DRYHI-R                 43.44         265      0.00     13.80     19.00     1.008    123.44    0.0    7.1
  FAIRH                   29.06         105      0.00     18.84     24.10     0.917     69.59    0.0   33.7
  FSCH                     3.30          39      0.00      1.93      2.92     0.011      0.32    0.0    0.0
  HITAU-R                  6.31         104      0.00      3.50      7.50     0.035      1.16    0.0   14.1
  HITAUB-R                 0.80          30      0.00      2.12      5.06     0.003      0.12    0.0    0.0
  SGREE-R                 97.77           1      0.00    161.34    294.37    24.358   2512.10    0.0    0.0
  

  Analysis begun on:  Wed Jun 24 00:51:45 2026
  Analysis ended on:  Wed Jun 24 00:54:51 2026
  Total elapsed time: 00:03:06