
  EPA STORM WATER MANAGEMENT MODEL - VERSION 5.2 (Build 5.2.4)
  ------------------------------------------------------------

  WARNING 05: minimum slope used for Conduit 1002640001
  WARNING 05: minimum slope used for Conduit 1002640003
  WARNING 05: minimum slope used for Conduit 1002640004
  WARNING 05: minimum slope used for Conduit 1002640005
  WARNING 05: minimum slope used for Conduit 1002640006
  WARNING 05: minimum slope used for Conduit 1002640007
  WARNING 05: minimum slope used for Conduit 1002660017
  WARNING 05: minimum slope used for Conduit 1002660023
  WARNING 05: minimum slope used for Conduit 1002660024
  WARNING 05: minimum slope used for Conduit 1002660026
  WARNING 05: minimum slope used for Conduit 1002660044
  WARNING 05: minimum slope used for Conduit 1002660046
  WARNING 05: minimum slope used for Conduit 1002660047
  WARNING 05: minimum slope used for Conduit 1002660054
  WARNING 05: minimum slope used for Conduit 1003390001
  WARNING 05: minimum slope used for Conduit 1003390003
  WARNING 05: minimum slope used for Conduit 1003390005
  WARNING 05: minimum slope used for Conduit 1003390006
  WARNING 05: minimum slope used for Conduit 1003390007
  WARNING 05: minimum slope used for Conduit 1003390008
  WARNING 05: minimum slope used for Conduit 1003390011
  WARNING 05: minimum slope used for Conduit 1003390017
  WARNING 05: minimum slope used for Conduit 1003660003
  WARNING 05: minimum slope used for Conduit 1003660008
  WARNING 05: minimum slope used for Conduit 1003660019
  WARNING 05: minimum slope used for Conduit 1003660038
  WARNING 05: minimum slope used for Conduit 1003660044
  WARNING 05: minimum slope used for Conduit 1003660061
  WARNING 05: minimum slope used for Conduit 1003660074
  WARNING 05: minimum slope used for Conduit 1003660083
  WARNING 05: minimum slope used for Conduit 1003660090
  WARNING 05: minimum slope used for Conduit 1003660100
  WARNING 05: minimum slope used for Conduit 1003660117
  WARNING 05: minimum slope used for Conduit 1003660145
  WARNING 05: minimum slope used for Conduit 1003660170
  WARNING 05: minimum slope used for Conduit 1003660194
  WARNING 05: minimum slope used for Conduit 1003660223
  WARNING 05: minimum slope used for Conduit 1003660256
  WARNING 05: minimum slope used for Conduit 1003660257
  WARNING 05: minimum slope used for Conduit 1003660259
  WARNING 05: minimum slope used for Conduit 1003660277
  WARNING 05: minimum slope used for Conduit 1003660280
  WARNING 05: minimum slope used for Conduit 1004390013
  WARNING 05: minimum slope used for Conduit 1004390015
  WARNING 05: minimum slope used for Conduit 1004390017
  WARNING 05: minimum slope used for Conduit 1004390023
  WARNING 05: minimum slope used for Conduit 1004660207
  WARNING 05: minimum slope used for Conduit 1004660235
  WARNING 05: minimum slope used for Conduit 1004660270
  WARNING 05: minimum slope used for Conduit 1004660276
  WARNING 05: minimum slope used for Conduit 1004660292
  WARNING 05: minimum slope used for Conduit 1005390010
  WARNING 05: minimum slope used for Conduit 1006660005
  WARNING 05: minimum slope used for Conduit 1006660034
  WARNING 05: minimum slope used for Conduit 1006660056
  WARNING 05: minimum slope used for Conduit 1006660083
  WARNING 05: minimum slope used for Conduit 1006660104
  WARNING 05: minimum slope used for Conduit 1007390002
  WARNING 05: minimum slope used for Conduit 1007390003
  WARNING 05: minimum slope used for Conduit 1007390005
  WARNING 05: minimum slope used for Conduit 1007490001
  WARNING 05: minimum slope used for Conduit 1007490002
  WARNING 05: minimum slope used for Conduit 1007660004
  WARNING 05: minimum slope used for Conduit 1007660007
  WARNING 05: minimum slope used for Conduit 1007660010
  WARNING 05: minimum slope used for Conduit 1007660014
  WARNING 05: minimum slope used for Conduit 1007660019
  WARNING 05: minimum slope used for Conduit 1007660023
  WARNING 05: minimum slope used for Conduit 1007660028
  WARNING 05: minimum slope used for Conduit 1007660077
  WARNING 05: minimum slope used for Conduit 1007660115
  WARNING 05: minimum slope used for Conduit 1008390003
  WARNING 05: minimum slope used for Conduit 1008660023
  WARNING 05: minimum slope used for Conduit 1008660112
  WARNING 05: minimum slope used for Conduit 1008660128
  WARNING 05: minimum slope used for Conduit 1008660142
  WARNING 05: minimum slope used for Conduit 1008660158
  WARNING 05: minimum slope used for Conduit 1008660171
  WARNING 05: minimum slope used for Conduit 1008880022
  WARNING 05: minimum slope used for Conduit 1009390015
  WARNING 05: minimum slope used for Conduit 1009390017
  WARNING 05: minimum slope used for Conduit 1009390019
  WARNING 05: minimum slope used for Conduit 1009390022
  WARNING 05: minimum slope used for Conduit 1009660235
  WARNING 05: minimum slope used for Conduit 1009660256
  WARNING 05: minimum slope used for Conduit 1009660289
  WARNING 05: minimum slope used for Conduit 1009660316
  WARNING 05: minimum slope used for Conduit 1009660321
  WARNING 05: minimum slope used for Conduit 1009660349
  WARNING 05: minimum slope used for Conduit 1009660373
  WARNING 05: minimum slope used for Conduit 1009880023
  WARNING 05: minimum slope used for Conduit 1010390005
  WARNING 05: minimum slope used for Conduit 1010660115
  WARNING 05: minimum slope used for Conduit 1010660159
  WARNING 05: minimum slope used for Conduit 1010660166
  WARNING 05: minimum slope used for Conduit 1010660212
  WARNING 05: minimum slope used for Conduit 1010660262
  WARNING 05: minimum slope used for Conduit 1010910051
  WARNING 05: minimum slope used for Conduit 1011390002
  WARNING 05: minimum slope used for Conduit 1011390005
  WARNING 05: minimum slope used for Conduit 1011390006
  WARNING 05: minimum slope used for Conduit 1011390011
  WARNING 05: minimum slope used for Conduit 1011390013
  WARNING 05: minimum slope used for Conduit 1011390014
  WARNING 05: minimum slope used for Conduit 1011390021
  WARNING 05: minimum slope used for Conduit 1011390022
  WARNING 05: minimum slope used for Conduit 1011390023
  WARNING 05: minimum slope used for Conduit 1011390029
  WARNING 05: minimum slope used for Conduit 1011390030
  WARNING 05: minimum slope used for Conduit 1011390031
  WARNING 05: minimum slope used for Conduit 1011390033
  WARNING 05: minimum slope used for Conduit 1011390036
  WARNING 05: minimum slope used for Conduit 1011660010
  WARNING 05: minimum slope used for Conduit 1011660012
  WARNING 05: minimum slope used for Conduit 1011660020
  WARNING 05: minimum slope used for Conduit 1011660025
  WARNING 05: minimum slope used for Conduit 1011660049
  WARNING 05: minimum slope used for Conduit 1011660066
  WARNING 05: minimum slope used for Conduit 1011660083
  WARNING 05: minimum slope used for Conduit 1011660105
  WARNING 05: minimum slope used for Conduit 1011660155
  WARNING 05: minimum slope used for Conduit 1011660177
  WARNING 05: minimum slope used for Conduit 1011660195
  WARNING 05: minimum slope used for Conduit 1011660204
  WARNING 05: minimum slope used for Conduit 1011660229
  WARNING 05: minimum slope used for Conduit 1011660239
  WARNING 05: minimum slope used for Conduit 1011660243
  WARNING 05: minimum slope used for Conduit 1011660250
  WARNING 05: minimum slope used for Conduit 1011660334
  WARNING 05: minimum slope used for Conduit 1011660356
  WARNING 05: minimum slope used for Conduit 1011660357
  WARNING 05: minimum slope used for Conduit 1011660359
  WARNING 05: minimum slope used for Conduit 1011880002
  WARNING 05: minimum slope used for Conduit 1011880003
  WARNING 05: minimum slope used for Conduit 1011880007
  WARNING 05: minimum slope used for Conduit 1011910010
  WARNING 05: minimum slope used for Conduit 1012390001
  WARNING 05: minimum slope used for Conduit 1012390002
  WARNING 05: minimum slope used for Conduit 1012660189
  WARNING 05: minimum slope used for Conduit 1012660196
  WARNING 05: minimum slope used for Conduit 1012660201
  WARNING 05: minimum slope used for Conduit 1012660230
  WARNING 05: minimum slope used for Conduit 1012660232
  WARNING 05: minimum slope used for Conduit 1012660233
  WARNING 05: minimum slope used for Conduit 1012660241
  WARNING 05: minimum slope used for Conduit 105660015
  WARNING 05: minimum slope used for Conduit 105870002
  WARNING 05: minimum slope used for Conduit 106640001
  WARNING 05: minimum slope used for Conduit 106660020
  WARNING 05: minimum slope used for Conduit 106660025
  WARNING 05: minimum slope used for Conduit 106880001
  WARNING 05: minimum slope used for Conduit 1102390001
  WARNING 05: minimum slope used for Conduit 1102640003
  WARNING 05: minimum slope used for Conduit 1102660025
  WARNING 05: minimum slope used for Conduit 1102660038
  WARNING 05: minimum slope used for Conduit 1103390003
  WARNING 05: minimum slope used for Conduit 1103390005
  WARNING 05: minimum slope used for Conduit 1103390009
  WARNING 05: minimum slope used for Conduit 1103390011
  WARNING 05: minimum slope used for Conduit 1103390012
  WARNING 05: minimum slope used for Conduit 1103390014
  WARNING 05: minimum slope used for Conduit 1103390015
  WARNING 05: minimum slope used for Conduit 1103390016
  WARNING 05: minimum slope used for Conduit 1103390017
  WARNING 05: minimum slope used for Conduit 1103660018
  WARNING 05: minimum slope used for Conduit 1103660052
  WARNING 05: minimum slope used for Conduit 1103660060
  WARNING 05: minimum slope used for Conduit 1103660132
  WARNING 05: minimum slope used for Conduit 1103660161
  WARNING 05: minimum slope used for Conduit 1103660175
  WARNING 05: minimum slope used for Conduit 1103660187
  WARNING 05: minimum slope used for Conduit 1103660217
  WARNING 05: minimum slope used for Conduit 1103660251
  WARNING 05: minimum slope used for Conduit 1103660289
  WARNING 05: minimum slope used for Conduit 1103660322
  WARNING 05: minimum slope used for Conduit 1103660360
  WARNING 05: minimum slope used for Conduit 1104660338
  WARNING 05: minimum slope used for Conduit 1104660428
  WARNING 05: minimum slope used for Conduit 1105390014
  WARNING 05: minimum slope used for Conduit 1105390015
  WARNING 05: minimum slope used for Conduit 1105390026
  WARNING 05: minimum slope used for Conduit 1105390027
  WARNING 05: minimum slope used for Conduit 1105390036
  WARNING 05: minimum slope used for Conduit 1105390037
  WARNING 05: minimum slope used for Conduit 1105490001
  WARNING 05: minimum slope used for Conduit 1105490002
  WARNING 05: minimum slope used for Conduit 1105490003
  WARNING 05: minimum slope used for Conduit 1105490004
  WARNING 05: minimum slope used for Conduit 1105660156
  WARNING 05: minimum slope used for Conduit 1105660157
  WARNING 05: minimum slope used for Conduit 1105660158
  WARNING 05: minimum slope used for Conduit 1105660160
  WARNING 05: minimum slope used for Conduit 1105660163
  WARNING 05: minimum slope used for Conduit 1105660259
  WARNING 05: minimum slope used for Conduit 1105880033
  WARNING 05: minimum slope used for Conduit 1106390015
  WARNING 05: minimum slope used for Conduit 1106660093
  WARNING 05: minimum slope used for Conduit 1106660094
  WARNING 05: minimum slope used for Conduit 1106660159
  WARNING 05: minimum slope used for Conduit 1106660173
  WARNING 05: minimum slope used for Conduit 1106660178
  WARNING 05: minimum slope used for Conduit 1106660236
  WARNING 05: minimum slope used for Conduit 1106660244
  WARNING 05: minimum slope used for Conduit 1106660279
  WARNING 05: minimum slope used for Conduit 1106660333
  WARNING 05: minimum slope used for Conduit 1106660748
  WARNING 05: minimum slope used for Conduit 1106880006
  WARNING 05: minimum slope used for Conduit 1106880011
  WARNING 05: minimum slope used for Conduit 1106880048
  WARNING 05: minimum slope used for Conduit 1107370081
  WARNING 05: minimum slope used for Conduit 1107390013
  WARNING 05: minimum slope used for Conduit 1107390024
  WARNING 05: minimum slope used for Conduit 1107390030
  WARNING 05: minimum slope used for Conduit 1107660013
  WARNING 05: minimum slope used for Conduit 1107660042
  WARNING 05: minimum slope used for Conduit 1107660058
  WARNING 05: minimum slope used for Conduit 1107660077
  WARNING 05: minimum slope used for Conduit 1107660105
  WARNING 05: minimum slope used for Conduit 1107660170
  WARNING 05: minimum slope used for Conduit 1107660187
  WARNING 05: minimum slope used for Conduit 1107660190
  WARNING 05: minimum slope used for Conduit 1107660216
  WARNING 05: minimum slope used for Conduit 1107660240
  WARNING 05: minimum slope used for Conduit 1107660257
  WARNING 05: minimum slope used for Conduit 1107880014
  WARNING 05: minimum slope used for Conduit 1107880018
  WARNING 05: minimum slope used for Conduit 1108390001
  WARNING 05: minimum slope used for Conduit 1108660010
  WARNING 05: minimum slope used for Conduit 1108660014
  WARNING 05: minimum slope used for Conduit 1108910005
  WARNING 05: minimum slope used for Conduit 1109360002
  WARNING 05: minimum slope used for Conduit 1109390001
  WARNING 05: minimum slope used for Conduit 1109390007
  WARNING 05: minimum slope used for Conduit 1109390010
  WARNING 05: minimum slope used for Conduit 1109390012
  WARNING 05: minimum slope used for Conduit 1109390014
  WARNING 05: minimum slope used for Conduit 1109390016
  WARNING 05: minimum slope used for Conduit 1109390018
  WARNING 05: minimum slope used for Conduit 1109390019
  WARNING 05: minimum slope used for Conduit 1109390020
  WARNING 05: minimum slope used for Conduit 1109390021
  WARNING 05: minimum slope used for Conduit 1109390026
  WARNING 05: minimum slope used for Conduit 1109390036
  WARNING 05: minimum slope used for Conduit 1109390048
  WARNING 05: minimum slope used for Conduit 1109390052
  WARNING 05: minimum slope used for Conduit 1109390053
  WARNING 05: minimum slope used for Conduit 1109390054
  WARNING 05: minimum slope used for Conduit 1109390058
  WARNING 05: minimum slope used for Conduit 1109520085
  WARNING 05: minimum slope used for Conduit 1109640001
  WARNING 05: minimum slope used for Conduit 1109660001
  WARNING 05: minimum slope used for Conduit 1109660067
  WARNING 05: minimum slope used for Conduit 1109660070
  WARNING 05: minimum slope used for Conduit 1109660077
  WARNING 05: minimum slope used for Conduit 1109660087
  WARNING 05: minimum slope used for Conduit 1109660103
  WARNING 05: minimum slope used for Conduit 1109660122
  WARNING 05: minimum slope used for Conduit 1109660148
  WARNING 05: minimum slope used for Conduit 1109660166
  WARNING 05: minimum slope used for Conduit 1109660174
  WARNING 05: minimum slope used for Conduit 1109660187
  WARNING 05: minimum slope used for Conduit 1109660211
  WARNING 05: minimum slope used for Conduit 1109660256
  WARNING 05: minimum slope used for Conduit 1109660257
  WARNING 05: minimum slope used for Conduit 1109660301
  WARNING 05: minimum slope used for Conduit 1109660352
  WARNING 05: minimum slope used for Conduit 1109880018
  WARNING 05: minimum slope used for Conduit 1110390025
  WARNING 05: minimum slope used for Conduit 1110660216
  WARNING 05: minimum slope used for Conduit 1110660222
  WARNING 05: minimum slope used for Conduit 1110660224
  WARNING 05: minimum slope used for Conduit 1110910013
  WARNING 05: minimum slope used for Conduit 1112390011
  WARNING 05: minimum slope used for Conduit 1112390014
  WARNING 05: minimum slope used for Conduit 1112460001
  WARNING 05: minimum slope used for Conduit 1112660006
  WARNING 05: minimum slope used for Conduit 1112660016
  WARNING 05: minimum slope used for Conduit 1112660022
  WARNING 05: minimum slope used for Conduit 1112660039
  WARNING 05: minimum slope used for Conduit 1112660040
  WARNING 05: minimum slope used for Conduit 1112660041
  WARNING 05: minimum slope used for Conduit 1112660181
  WARNING 05: minimum slope used for Conduit 1112660184
  WARNING 05: minimum slope used for Conduit 1112660187
  WARNING 05: minimum slope used for Conduit 1112660191
  WARNING 05: minimum slope used for Conduit 1112660196
  WARNING 05: minimum slope used for Conduit 1112660215
  WARNING 05: minimum slope used for Conduit 1112660222
  WARNING 05: minimum slope used for Conduit 1112660308
  WARNING 05: minimum slope used for Conduit 1112660333
  WARNING 05: minimum slope used for Conduit 1112660334
  WARNING 05: minimum slope used for Conduit 1112660352
  WARNING 05: minimum slope used for Conduit 1112910063
  WARNING 05: minimum slope used for Conduit 1113460001
  WARNING 05: minimum slope used for Conduit 1113660029
  WARNING 05: minimum slope used for Conduit 1113660032
  WARNING 05: minimum slope used for Conduit 1113660036
  WARNING 05: minimum slope used for Conduit 1113660038
  WARNING 05: minimum slope used for Conduit 1113660039
  WARNING 05: minimum slope used for Conduit 1113660041
  WARNING 05: minimum slope used for Conduit 1113660046
  WARNING 05: minimum slope used for Conduit 1202390001
  WARNING 05: minimum slope used for Conduit 1202640003
  WARNING 05: minimum slope used for Conduit 1202640004
  WARNING 05: minimum slope used for Conduit 1202660015
  WARNING 05: minimum slope used for Conduit 1203390010
  WARNING 05: minimum slope used for Conduit 1203390011
  WARNING 05: minimum slope used for Conduit 1203660006
  WARNING 05: minimum slope used for Conduit 1203660028
  WARNING 05: minimum slope used for Conduit 1203660055
  WARNING 05: minimum slope used for Conduit 1203660081
  WARNING 05: minimum slope used for Conduit 1203660096
  WARNING 05: minimum slope used for Conduit 1203660118
  WARNING 05: minimum slope used for Conduit 1203660131
  WARNING 05: minimum slope used for Conduit 1203660144
  WARNING 05: minimum slope used for Conduit 1203660170
  WARNING 05: minimum slope used for Conduit 1203660181
  WARNING 05: minimum slope used for Conduit 1203660187
  WARNING 05: minimum slope used for Conduit 1203660210
  WARNING 05: minimum slope used for Conduit 1203660253
  WARNING 05: minimum slope used for Conduit 1203660263
  WARNING 05: minimum slope used for Conduit 1203660284
  WARNING 05: minimum slope used for Conduit 1204660010
  WARNING 05: minimum slope used for Conduit 1205660146
  WARNING 05: minimum slope used for Conduit 1205660146_2
  WARNING 05: minimum slope used for Conduit 1205660167
  WARNING 05: minimum slope used for Conduit 1205660200
  WARNING 05: minimum slope used for Conduit 1205660231
  WARNING 05: minimum slope used for Conduit 1205660265
  WARNING 05: minimum slope used for Conduit 1205660362
  WARNING 05: minimum slope used for Conduit 1206390002
  WARNING 05: minimum slope used for Conduit 1206390003
  WARNING 05: minimum slope used for Conduit 1206390006
  WARNING 05: minimum slope used for Conduit 1206390010
  WARNING 05: minimum slope used for Conduit 1206390015
  WARNING 05: minimum slope used for Conduit 1206390022
  WARNING 05: minimum slope used for Conduit 1206660003
  WARNING 05: minimum slope used for Conduit 1206660029
  WARNING 05: minimum slope used for Conduit 1206660060
  WARNING 05: minimum slope used for Conduit 1206660068
  WARNING 05: minimum slope used for Conduit 1206660085
  WARNING 05: minimum slope used for Conduit 1206660087
  WARNING 05: minimum slope used for Conduit 1206660092
  WARNING 05: minimum slope used for Conduit 1206660093
  WARNING 05: minimum slope used for Conduit 1206660108
  WARNING 05: minimum slope used for Conduit 1206660131
  WARNING 05: minimum slope used for Conduit 1206660152
  WARNING 05: minimum slope used for Conduit 1206660154
  WARNING 05: minimum slope used for Conduit 1206660184
  WARNING 05: minimum slope used for Conduit 1206660210
  WARNING 05: minimum slope used for Conduit 1206660220
  WARNING 05: minimum slope used for Conduit 1206660230
  WARNING 05: minimum slope used for Conduit 1206660234
  WARNING 05: minimum slope used for Conduit 1206660243
  WARNING 05: minimum slope used for Conduit 1206660246
  WARNING 05: minimum slope used for Conduit 1206660264
  WARNING 05: minimum slope used for Conduit 1206660269
  WARNING 05: minimum slope used for Conduit 1206660291
  WARNING 05: minimum slope used for Conduit 1206880013
  WARNING 05: minimum slope used for Conduit 1207390005
  WARNING 05: minimum slope used for Conduit 1207660078
  WARNING 05: minimum slope used for Conduit 1207660237
  WARNING 05: minimum slope used for Conduit 1207660240
  WARNING 05: minimum slope used for Conduit 1208640001
  WARNING 05: minimum slope used for Conduit 1208640003
  WARNING 05: minimum slope used for Conduit 1208660004
  WARNING 05: minimum slope used for Conduit 1208660021
  WARNING 05: minimum slope used for Conduit 1208660027
  WARNING 05: minimum slope used for Conduit 1208660032
  WARNING 05: minimum slope used for Conduit 1209390007
  WARNING 05: minimum slope used for Conduit 1209390011
  WARNING 05: minimum slope used for Conduit 1209390013
  WARNING 05: minimum slope used for Conduit 1209390015
  WARNING 05: minimum slope used for Conduit 1209390018
  WARNING 05: minimum slope used for Conduit 1209390021
  WARNING 05: minimum slope used for Conduit 1209390022
  WARNING 05: minimum slope used for Conduit 1209560001
  WARNING 05: minimum slope used for Conduit 1209660006
  WARNING 05: minimum slope used for Conduit 1209660008
  WARNING 05: minimum slope used for Conduit 1209660011
  WARNING 05: minimum slope used for Conduit 1209660037
  WARNING 05: minimum slope used for Conduit 1209660059
  WARNING 05: minimum slope used for Conduit 1209660078
  WARNING 05: minimum slope used for Conduit 1209660093
  WARNING 05: minimum slope used for Conduit 1209660117
  WARNING 05: minimum slope used for Conduit 1209660179
  WARNING 05: minimum slope used for Conduit 1209660225
  WARNING 05: minimum slope used for Conduit 1209780001
  WARNING 05: minimum slope used for Conduit 1209910015
  WARNING 05: minimum slope used for Conduit 1210390003
  WARNING 05: minimum slope used for Conduit 1210390008
  WARNING 05: minimum slope used for Conduit 1210390025
  WARNING 05: minimum slope used for Conduit 1210390040
  WARNING 05: minimum slope used for Conduit 1210390046
  WARNING 05: minimum slope used for Conduit 1210660043
  WARNING 05: minimum slope used for Conduit 1210660101
  WARNING 05: minimum slope used for Conduit 1210660127
  WARNING 05: minimum slope used for Conduit 1210660132
  WARNING 05: minimum slope used for Conduit 1210660148
  WARNING 05: minimum slope used for Conduit 1210660192
  WARNING 05: minimum slope used for Conduit 1210660196
  WARNING 05: minimum slope used for Conduit 1210660221
  WARNING 05: minimum slope used for Conduit 1210660225
  WARNING 05: minimum slope used for Conduit 1210660241
  WARNING 05: minimum slope used for Conduit 1210660267
  WARNING 05: minimum slope used for Conduit 1210660269
  WARNING 05: minimum slope used for Conduit 1210660324
  WARNING 05: minimum slope used for Conduit 1210660367
  WARNING 05: minimum slope used for Conduit 1210880001
  WARNING 05: minimum slope used for Conduit 1210910018
  WARNING 05: minimum slope used for Conduit 1212390014
  WARNING 05: minimum slope used for Conduit 1212460003
  WARNING 05: minimum slope used for Conduit 1212660199
  WARNING 05: minimum slope used for Conduit 1212660246
  WARNING 05: minimum slope used for Conduit 1212660247
  WARNING 05: minimum slope used for Conduit 1212660248
  WARNING 05: minimum slope used for Conduit 1212660254
  WARNING 05: minimum slope used for Conduit 1212660256
  WARNING 05: minimum slope used for Conduit 1212660299
  WARNING 05: minimum slope used for Conduit 1212690006
  WARNING 05: minimum slope used for Conduit 1213660006
  WARNING 05: minimum slope used for Conduit 1303360001
  WARNING 05: minimum slope used for Conduit 1303660008
  WARNING 05: minimum slope used for Conduit 1303660013
  WARNING 05: minimum slope used for Conduit 1304390002
  WARNING 05: minimum slope used for Conduit 1304390005
  WARNING 05: minimum slope used for Conduit 1304520001
  WARNING 05: minimum slope used for Conduit 1304640004
  WARNING 05: minimum slope used for Conduit 1304660003
  WARNING 05: minimum slope used for Conduit 1304660008
  WARNING 05: minimum slope used for Conduit 1304660028
  WARNING 05: minimum slope used for Conduit 1304660028_2
  WARNING 05: minimum slope used for Conduit 1304660029
  WARNING 05: minimum slope used for Conduit 1304660030
  WARNING 05: minimum slope used for Conduit 1304660042
  WARNING 05: minimum slope used for Conduit 1304660050
  WARNING 05: minimum slope used for Conduit 1304660067
  WARNING 05: minimum slope used for Conduit 1304660070
  WARNING 05: minimum slope used for Conduit 1304660082
  WARNING 05: minimum slope used for Conduit 1304660092
  WARNING 05: minimum slope used for Conduit 1305370002
  WARNING 05: minimum slope used for Conduit 1305640002
  WARNING 05: minimum slope used for Conduit 1305640003
  WARNING 05: minimum slope used for Conduit 1305640004
  WARNING 05: minimum slope used for Conduit 1305660021
  WARNING 05: minimum slope used for Conduit 1305660046
  WARNING 05: minimum slope used for Conduit 1306390003
  WARNING 05: minimum slope used for Conduit 1306660094
  WARNING 05: minimum slope used for Conduit 1306880008
  WARNING 05: minimum slope used for Conduit 1307390003
  WARNING 05: minimum slope used for Conduit 1307390006
  WARNING 05: minimum slope used for Conduit 1307390007
  WARNING 05: minimum slope used for Conduit 1307390009
  WARNING 05: minimum slope used for Conduit 1307390011
  WARNING 05: minimum slope used for Conduit 1307660017
  WARNING 05: minimum slope used for Conduit 1307660059
  WARNING 05: minimum slope used for Conduit 1307660070
  WARNING 05: minimum slope used for Conduit 1307660080
  WARNING 05: minimum slope used for Conduit 1307660090
  WARNING 05: minimum slope used for Conduit 1307660092
  WARNING 05: minimum slope used for Conduit 1307660114
  WARNING 05: minimum slope used for Conduit 1307660125
  WARNING 05: minimum slope used for Conduit 1307660144
  WARNING 05: minimum slope used for Conduit 1307660151
  WARNING 05: minimum slope used for Conduit 1307660158
  WARNING 05: minimum slope used for Conduit 1307660166
  WARNING 05: minimum slope used for Conduit 1307660172
  WARNING 05: minimum slope used for Conduit 1307660196
  WARNING 05: minimum slope used for Conduit 1307660202
  WARNING 05: minimum slope used for Conduit 1307780003
  WARNING 05: minimum slope used for Conduit 1307880006
  WARNING 05: minimum slope used for Conduit 1307880007
  WARNING 05: minimum slope used for Conduit 1308660013
  WARNING 05: minimum slope used for Conduit 1308660015
  WARNING 05: minimum slope used for Conduit 1308660016
  WARNING 05: minimum slope used for Conduit 1309390016
  WARNING 05: minimum slope used for Conduit 1309660090
  WARNING 05: minimum slope used for Conduit 1309660187
  WARNING 05: minimum slope used for Conduit 1310390001
  WARNING 05: minimum slope used for Conduit 1310390002
  WARNING 05: minimum slope used for Conduit 1310390003
  WARNING 05: minimum slope used for Conduit 1310390004
  WARNING 05: minimum slope used for Conduit 1310390005
  WARNING 05: minimum slope used for Conduit 1310390006
  WARNING 05: minimum slope used for Conduit 1310390012
  WARNING 05: minimum slope used for Conduit 1310390013
  WARNING 05: minimum slope used for Conduit 1310660006
  WARNING 05: minimum slope used for Conduit 1310660012
  WARNING 05: minimum slope used for Conduit 1310660023
  WARNING 05: minimum slope used for Conduit 1310660054
  WARNING 05: minimum slope used for Conduit 1310660093
  WARNING 05: minimum slope used for Conduit 1310660133
  WARNING 05: minimum slope used for Conduit 1310660196
  WARNING 05: minimum slope used for Conduit 1310660205
  WARNING 05: minimum slope used for Conduit 1310660223
  WARNING 05: minimum slope used for Conduit 1310660253
  WARNING 05: minimum slope used for Conduit 1310660386
  WARNING 05: minimum slope used for Conduit 1310880002
  WARNING 05: minimum slope used for Conduit 1310880016
  WARNING 05: minimum slope used for Conduit 1310880034
  WARNING 05: minimum slope used for Conduit 1311390012
  WARNING 05: minimum slope used for Conduit 1311660016
  WARNING 05: minimum slope used for Conduit 1311660036
  WARNING 05: minimum slope used for Conduit 1311660038
  WARNING 05: minimum slope used for Conduit 1311660071
  WARNING 05: minimum slope used for Conduit 1311660096
  WARNING 05: minimum slope used for Conduit 1311660212
  WARNING 05: minimum slope used for Conduit 1311660218
  WARNING 05: minimum slope used for Conduit 1311660245
  WARNING 05: minimum slope used for Conduit 1312660021
  WARNING 05: minimum slope used for Conduit 1312660031
  WARNING 05: minimum slope used for Conduit 1312660070
  WARNING 05: minimum slope used for Conduit 1312880006
  WARNING 05: minimum slope used for Conduit 1312880011
  WARNING 05: minimum slope used for Conduit 1403360010
  WARNING 05: minimum slope used for Conduit 1403660005
  WARNING 05: minimum slope used for Conduit 1403660008
  WARNING 05: minimum slope used for Conduit 1406660063
  WARNING 05: minimum slope used for Conduit 1406660070
  WARNING 05: minimum slope used for Conduit 1407390005
  WARNING 05: minimum slope used for Conduit 1407390010
  WARNING 05: minimum slope used for Conduit 1407390014
  WARNING 05: minimum slope used for Conduit 1407390017
  WARNING 05: minimum slope used for Conduit 1407390018
  WARNING 05: minimum slope used for Conduit 1407390019
  WARNING 05: minimum slope used for Conduit 1407490002
  WARNING 05: minimum slope used for Conduit 1407660002
  WARNING 05: minimum slope used for Conduit 1407660008
  WARNING 05: minimum slope used for Conduit 1407660137
  WARNING 05: minimum slope used for Conduit 1407660177
  WARNING 05: minimum slope used for Conduit 1407660248
  WARNING 05: minimum slope used for Conduit 1407660303
  WARNING 05: minimum slope used for Conduit 1407660348
  WARNING 05: minimum slope used for Conduit 1407910052
  WARNING 05: minimum slope used for Conduit 1407910057
  WARNING 05: minimum slope used for Conduit 1408660009
  WARNING 05: minimum slope used for Conduit 1408660017
  WARNING 05: minimum slope used for Conduit 1409660128
  WARNING 05: minimum slope used for Conduit 1411390025
  WARNING 05: minimum slope used for Conduit 1411390042
  WARNING 05: minimum slope used for Conduit 1411660030
  WARNING 05: minimum slope used for Conduit 1411660076
  WARNING 05: minimum slope used for Conduit 1411660106
  WARNING 05: minimum slope used for Conduit 1411660136
  WARNING 05: minimum slope used for Conduit 1411660186
  WARNING 05: minimum slope used for Conduit 1411660261
  WARNING 05: minimum slope used for Conduit 1411660265
  WARNING 05: minimum slope used for Conduit 1411660266
  WARNING 05: minimum slope used for Conduit 1411660269
  WARNING 05: minimum slope used for Conduit 1411660276
  WARNING 05: minimum slope used for Conduit 1411660282
  WARNING 05: minimum slope used for Conduit 1411660288
  WARNING 05: minimum slope used for Conduit 1411660292
  WARNING 05: minimum slope used for Conduit 1411660294
  WARNING 05: minimum slope used for Conduit 1411660299
  WARNING 05: minimum slope used for Conduit 1411660309
  WARNING 05: minimum slope used for Conduit 1412660052
  WARNING 05: minimum slope used for Conduit 1505520003
  WARNING 05: minimum slope used for Conduit 1506640002
  WARNING 05: minimum slope used for Conduit 1506660019
  WARNING 05: minimum slope used for Conduit 1506660037
  WARNING 05: minimum slope used for Conduit 1506660075
  WARNING 05: minimum slope used for Conduit 1506660107
  WARNING 05: minimum slope used for Conduit 1506660224
  WARNING 05: minimum slope used for Conduit 1507390022
  WARNING 05: minimum slope used for Conduit 1507390029
  WARNING 05: minimum slope used for Conduit 1507390042
  WARNING 05: minimum slope used for Conduit 1507390043
  WARNING 05: minimum slope used for Conduit 1507390045
  WARNING 05: minimum slope used for Conduit 1507390048
  WARNING 05: minimum slope used for Conduit 1507390048_2
  WARNING 05: minimum slope used for Conduit 1507390049
  WARNING 05: minimum slope used for Conduit 1507490004
  WARNING 05: minimum slope used for Conduit 1507530538
  WARNING 05: minimum slope used for Conduit 1507660037
  WARNING 05: minimum slope used for Conduit 1507660065
  WARNING 05: minimum slope used for Conduit 1507660074
  WARNING 05: minimum slope used for Conduit 1507660078
  WARNING 05: minimum slope used for Conduit 1507660096
  WARNING 05: minimum slope used for Conduit 1507660148
  WARNING 05: minimum slope used for Conduit 1507660158
  WARNING 05: minimum slope used for Conduit 1507660202
  WARNING 05: minimum slope used for Conduit 1507660236
  WARNING 05: minimum slope used for Conduit 1507660245
  WARNING 05: minimum slope used for Conduit 1507660259
  WARNING 05: minimum slope used for Conduit 1507660278
  WARNING 05: minimum slope used for Conduit 1507660292
  WARNING 05: minimum slope used for Conduit 1507880011
  WARNING 05: minimum slope used for Conduit 1507880014
  WARNING 05: minimum slope used for Conduit 1507910052
  WARNING 05: minimum slope used for Conduit 151
  WARNING 05: minimum slope used for Conduit 1510660173
  WARNING 05: minimum slope used for Conduit 1510660199
  WARNING 05: minimum slope used for Conduit 1510660207
  WARNING 05: minimum slope used for Conduit 1510660236
  WARNING 05: minimum slope used for Conduit 1511390005
  WARNING 05: minimum slope used for Conduit 1511390011
  WARNING 05: minimum slope used for Conduit 1511390012
  WARNING 05: minimum slope used for Conduit 1511390019
  WARNING 05: minimum slope used for Conduit 1511460003
  WARNING 05: minimum slope used for Conduit 1511460005
  WARNING 05: minimum slope used for Conduit 1511580003
  WARNING 05: minimum slope used for Conduit 1511660001
  WARNING 05: minimum slope used for Conduit 1511660006
  WARNING 05: minimum slope used for Conduit 1511660058
  WARNING 05: minimum slope used for Conduit 1511660084
  WARNING 05: minimum slope used for Conduit 1511660090
  WARNING 05: minimum slope used for Conduit 1511660095
  WARNING 05: minimum slope used for Conduit 1511660105
  WARNING 05: minimum slope used for Conduit 1511660118
  WARNING 05: minimum slope used for Conduit 1511660129
  WARNING 05: minimum slope used for Conduit 1511660179
  WARNING 05: minimum slope used for Conduit 1511660222
  WARNING 05: minimum slope used for Conduit 1511660223
  WARNING 05: minimum slope used for Conduit 1512390005
  WARNING 05: minimum slope used for Conduit 1512460006
  WARNING 05: minimum slope used for Conduit 1512630001
  WARNING 05: minimum slope used for Conduit 1512660032
  WARNING 05: minimum slope used for Conduit 1512660059_2
  WARNING 05: minimum slope used for Conduit 1606660066
  WARNING 05: minimum slope used for Conduit 1606660082
  WARNING 05: minimum slope used for Conduit 1607390013
  WARNING 05: minimum slope used for Conduit 1607390015
  WARNING 05: minimum slope used for Conduit 1607660170
  WARNING 05: minimum slope used for Conduit 1608390005
  WARNING 05: minimum slope used for Conduit 1608390012
  WARNING 05: minimum slope used for Conduit 1608390013
  WARNING 05: minimum slope used for Conduit 1608390014
  WARNING 05: minimum slope used for Conduit 1608390015
  WARNING 05: minimum slope used for Conduit 1608390016
  WARNING 05: minimum slope used for Conduit 1608390036
  WARNING 05: minimum slope used for Conduit 1608390037
  WARNING 05: minimum slope used for Conduit 1608660010
  WARNING 05: minimum slope used for Conduit 1608660013
  WARNING 05: minimum slope used for Conduit 1608660016
  WARNING 05: minimum slope used for Conduit 1608660024
  WARNING 05: minimum slope used for Conduit 1608660133
  WARNING 05: minimum slope used for Conduit 1608660179
  WARNING 05: minimum slope used for Conduit 1608660278
  WARNING 05: minimum slope used for Conduit 1608660362
  WARNING 05: minimum slope used for Conduit 1609390006
  WARNING 05: minimum slope used for Conduit 1609660182
  WARNING 05: minimum slope used for Conduit 1609660204
  WARNING 05: minimum slope used for Conduit 1609910086
  WARNING 05: minimum slope used for Conduit 1611660179
  WARNING 05: minimum slope used for Conduit 1611660182
  WARNING 05: minimum slope used for Conduit 1611660203
  WARNING 05: minimum slope used for Conduit 1611660206
  WARNING 05: minimum slope used for Conduit 1611660217
  WARNING 05: minimum slope used for Conduit 1611660232
  WARNING 05: minimum slope used for Conduit 1611660292
  WARNING 05: minimum slope used for Conduit 1611660293
  WARNING 05: minimum slope used for Conduit 1612460001
  WARNING 05: minimum slope used for Conduit 1612660003
  WARNING 05: minimum slope used for Conduit 1612660007
  WARNING 05: minimum slope used for Conduit 1612660016
  WARNING 05: minimum slope used for Conduit 1612660027
  WARNING 05: minimum slope used for Conduit 1612660028
  WARNING 05: minimum slope used for Conduit 1612660041
  WARNING 05: minimum slope used for Conduit 1612660046
  WARNING 05: minimum slope used for Conduit 1612660137
  WARNING 05: minimum slope used for Conduit 1612660170
  WARNING 05: minimum slope used for Conduit 1612660171
  WARNING 05: minimum slope used for Conduit 1612660172
  WARNING 05: minimum slope used for Conduit 1612660173
  WARNING 05: minimum slope used for Conduit 1708390003
  WARNING 05: minimum slope used for Conduit 1708390008
  WARNING 05: minimum slope used for Conduit 1708390015
  WARNING 05: minimum slope used for Conduit 1708390024
  WARNING 05: minimum slope used for Conduit 1708390033
  WARNING 05: minimum slope used for Conduit 1708490002
  WARNING 05: minimum slope used for Conduit 1708660033
  WARNING 05: minimum slope used for Conduit 1708660071
  WARNING 05: minimum slope used for Conduit 1708660124
  WARNING 05: minimum slope used for Conduit 1708660129_2
  WARNING 05: minimum slope used for Conduit 1708660133
  WARNING 05: minimum slope used for Conduit 1708660137
  WARNING 05: minimum slope used for Conduit 1708660147
  WARNING 05: minimum slope used for Conduit 1708660164
  WARNING 05: minimum slope used for Conduit 1708660173
  WARNING 05: minimum slope used for Conduit 1708660188
  WARNING 05: minimum slope used for Conduit 1708660189
  WARNING 05: minimum slope used for Conduit 1708660195
  WARNING 05: minimum slope used for Conduit 1708660236
  WARNING 05: minimum slope used for Conduit 1708660278
  WARNING 05: minimum slope used for Conduit 1709660303
  WARNING 05: minimum slope used for Conduit 1711580001
  WARNING 05: minimum slope used for Conduit 1711660087
  WARNING 05: minimum slope used for Conduit 1711660100
  WARNING 05: minimum slope used for Conduit 1711660107
  WARNING 05: minimum slope used for Conduit 1711660120
  WARNING 05: minimum slope used for Conduit 1711660151
  WARNING 05: minimum slope used for Conduit 1711660171
  WARNING 05: minimum slope used for Conduit 1711660177
  WARNING 05: minimum slope used for Conduit 1711660183
  WARNING 05: minimum slope used for Conduit 1711660184
  WARNING 05: minimum slope used for Conduit 1711660185
  WARNING 05: minimum slope used for Conduit 1711660221
  WARNING 05: minimum slope used for Conduit 1711660291
  WARNING 05: minimum slope used for Conduit 1712390019
  WARNING 05: minimum slope used for Conduit 1712660007
  WARNING 05: minimum slope used for Conduit 1712660070
  WARNING 05: minimum slope used for Conduit 1712660073
  WARNING 05: minimum slope used for Conduit 1712660075
  WARNING 05: minimum slope used for Conduit 1712660076
  WARNING 05: minimum slope used for Conduit 1712660088
  WARNING 05: minimum slope used for Conduit 1712660089
  WARNING 05: minimum slope used for Conduit 1712660098
  WARNING 05: minimum slope used for Conduit 1712660099
  WARNING 05: minimum slope used for Conduit 1712660107
  WARNING 05: minimum slope used for Conduit 1712660113
  WARNING 05: minimum slope used for Conduit 1712660121
  WARNING 05: minimum slope used for Conduit 1712660131
  WARNING 05: minimum slope used for Conduit 1712660134
  WARNING 05: minimum slope used for Conduit 1712660145
  WARNING 05: minimum slope used for Conduit 1712660296
  WARNING 05: minimum slope used for Conduit 1712660297
  WARNING 05: minimum slope used for Conduit 1712660298
  WARNING 05: minimum slope used for Conduit 1712660299
  WARNING 05: minimum slope used for Conduit 1712660301
  WARNING 05: minimum slope used for Conduit 1712660303
  WARNING 05: minimum slope used for Conduit 1712660304
  WARNING 05: minimum slope used for Conduit 1712660305
  WARNING 05: minimum slope used for Conduit 1712660306
  WARNING 05: minimum slope used for Conduit 1712660307
  WARNING 05: minimum slope used for Conduit 1712910028
  WARNING 05: minimum slope used for Conduit 1713660004
  WARNING 05: minimum slope used for Conduit 1713660008
  WARNING 05: minimum slope used for Conduit 1713660022
  WARNING 05: minimum slope used for Conduit 1713660025
  WARNING 05: minimum slope used for Conduit 1807640002
  WARNING 05: minimum slope used for Conduit 1807660050
  WARNING 05: minimum slope used for Conduit 1808390005
  WARNING 05: minimum slope used for Conduit 1808390009
  WARNING 05: minimum slope used for Conduit 1808390011
  WARNING 05: minimum slope used for Conduit 1808390012
  WARNING 05: minimum slope used for Conduit 1808390016
  WARNING 05: minimum slope used for Conduit 1808520003
  WARNING 05: minimum slope used for Conduit 1808660016
  WARNING 05: minimum slope used for Conduit 1808660036
  WARNING 05: minimum slope used for Conduit 1808660070
  WARNING 05: minimum slope used for Conduit 1808660081
  WARNING 05: minimum slope used for Conduit 1808660097
  WARNING 05: minimum slope used for Conduit 1808660100
  WARNING 05: minimum slope used for Conduit 1808660148
  WARNING 05: minimum slope used for Conduit 1808660156
  WARNING 05: minimum slope used for Conduit 1808660168
  WARNING 05: minimum slope used for Conduit 1808660168_1
  WARNING 05: minimum slope used for Conduit 1808660168_2
  WARNING 05: minimum slope used for Conduit 1808660168_3
  WARNING 05: minimum slope used for Conduit 1808660168_4
  WARNING 05: minimum slope used for Conduit 1808660168_5
  WARNING 05: minimum slope used for Conduit 1808660168_6
  WARNING 05: minimum slope used for Conduit 1808660168_7
  WARNING 05: minimum slope used for Conduit 1808660168_8
  WARNING 05: minimum slope used for Conduit 1808660200
  WARNING 05: minimum slope used for Conduit 1808660214
  WARNING 05: minimum slope used for Conduit 1808660244
  WARNING 05: minimum slope used for Conduit 1808660252
  WARNING 05: minimum slope used for Conduit 1808660275
  WARNING 05: minimum slope used for Conduit 1808660304
  WARNING 05: minimum slope used for Conduit 1808660316
  WARNING 05: minimum slope used for Conduit 1812660083
  WARNING 05: minimum slope used for Conduit 1812660084
  WARNING 05: minimum slope used for Conduit 188
  WARNING 05: minimum slope used for Conduit 1903660001
  WARNING 05: minimum slope used for Conduit 1903660003
  WARNING 05: minimum slope used for Conduit 1903660005
  WARNING 05: minimum slope used for Conduit 1903660007
  WARNING 05: minimum slope used for Conduit 1903660009
  WARNING 05: minimum slope used for Conduit 1907520001
  WARNING 05: minimum slope used for Conduit 1907520003
  WARNING 05: minimum slope used for Conduit 1907640001
  WARNING 05: minimum slope used for Conduit 1907640002
  WARNING 05: minimum slope used for Conduit 1907870005
  WARNING 05: minimum slope used for Conduit 1907870006
  WARNING 05: minimum slope used for Conduit 1907870016
  WARNING 05: minimum slope used for Conduit 1907910044
  WARNING 05: minimum slope used for Conduit 1908390003
  WARNING 05: minimum slope used for Conduit 1908390011
  WARNING 05: minimum slope used for Conduit 1908390027
  WARNING 05: minimum slope used for Conduit 1908390032
  WARNING 05: minimum slope used for Conduit 1908600001
  WARNING 05: minimum slope used for Conduit 1908600001_2
  WARNING 05: minimum slope used for Conduit 1908660008
  WARNING 05: minimum slope used for Conduit 1908660033
  WARNING 05: minimum slope used for Conduit 1908660037
  WARNING 05: minimum slope used for Conduit 1908660096
  WARNING 05: minimum slope used for Conduit 1908660103
  WARNING 05: minimum slope used for Conduit 1908660146
  WARNING 05: minimum slope used for Conduit 1908660184
  WARNING 05: minimum slope used for Conduit 1908660238
  WARNING 05: minimum slope used for Conduit 1908660262
  WARNING 05: minimum slope used for Conduit 1908880040
  WARNING 05: minimum slope used for Conduit 1908880042
  WARNING 05: minimum slope used for Conduit 2003660003
  WARNING 05: minimum slope used for Conduit 2003660004
  WARNING 05: minimum slope used for Conduit 2003660005
  WARNING 05: minimum slope used for Conduit 2003660006
  WARNING 05: minimum slope used for Conduit 2003660007
  WARNING 05: minimum slope used for Conduit 2003660008
  WARNING 05: minimum slope used for Conduit 2003660009
  WARNING 05: minimum slope used for Conduit 2003660010
  WARNING 05: minimum slope used for Conduit 2003660011
  WARNING 05: minimum slope used for Conduit 2003660015
  WARNING 05: minimum slope used for Conduit 2004390005
  WARNING 05: minimum slope used for Conduit 2007640001
  WARNING 05: minimum slope used for Conduit 2007660016
  WARNING 05: minimum slope used for Conduit 2007660031
  WARNING 05: minimum slope used for Conduit 2007660032
  WARNING 05: minimum slope used for Conduit 2007660034
  WARNING 05: minimum slope used for Conduit 2007660063
  WARNING 05: minimum slope used for Conduit 2007660068
  WARNING 05: minimum slope used for Conduit 2007660077
  WARNING 05: minimum slope used for Conduit 2007660105
  WARNING 05: minimum slope used for Conduit 2007660112
  WARNING 05: minimum slope used for Conduit 2007660113
  WARNING 05: minimum slope used for Conduit 2007660120
  WARNING 05: minimum slope used for Conduit 2007660149
  WARNING 05: minimum slope used for Conduit 2007660157
  WARNING 05: minimum slope used for Conduit 2007880014
  WARNING 05: minimum slope used for Conduit 2007880022_2
  WARNING 05: minimum slope used for Conduit 2008390015
  WARNING 05: minimum slope used for Conduit 2008390021
  WARNING 05: minimum slope used for Conduit 2008660002
  WARNING 05: minimum slope used for Conduit 2008660005
  WARNING 05: minimum slope used for Conduit 2008660006
  WARNING 05: minimum slope used for Conduit 2008660007
  WARNING 05: minimum slope used for Conduit 2008660012
  WARNING 05: minimum slope used for Conduit 2008660020
  WARNING 05: minimum slope used for Conduit 2008660023
  WARNING 05: minimum slope used for Conduit 2008660035
  WARNING 05: minimum slope used for Conduit 2008660038
  WARNING 05: minimum slope used for Conduit 2008660042
  WARNING 05: minimum slope used for Conduit 2008660047
  WARNING 05: minimum slope used for Conduit 2008660057
  WARNING 05: minimum slope used for Conduit 2008660069
  WARNING 05: minimum slope used for Conduit 2008660075
  WARNING 05: minimum slope used for Conduit 2008660079
  WARNING 05: minimum slope used for Conduit 2008660086
  WARNING 05: minimum slope used for Conduit 2008660088
  WARNING 05: minimum slope used for Conduit 2008660093
  WARNING 05: minimum slope used for Conduit 2008660100_2
  WARNING 05: minimum slope used for Conduit 2008660102
  WARNING 05: minimum slope used for Conduit 2008660172
  WARNING 05: minimum slope used for Conduit 2008660185
  WARNING 05: minimum slope used for Conduit 2008660189
  WARNING 05: minimum slope used for Conduit 2008660203
  WARNING 05: minimum slope used for Conduit 2008660222
  WARNING 05: minimum slope used for Conduit 2008660223
  WARNING 05: minimum slope used for Conduit 2008660276
  WARNING 05: minimum slope used for Conduit 2008660277
  WARNING 05: minimum slope used for Conduit 2008660284
  WARNING 05: minimum slope used for Conduit 2008870003
  WARNING 05: minimum slope used for Conduit 2008870008
  WARNING 05: minimum slope used for Conduit 2008870010
  WARNING 05: minimum slope used for Conduit 2008870012
  WARNING 05: minimum slope used for Conduit 2008870016
  WARNING 05: minimum slope used for Conduit 2008870019
  WARNING 05: minimum slope used for Conduit 2009660007
  WARNING 05: minimum slope used for Conduit 2009660051
  WARNING 05: minimum slope used for Conduit 2009660105
  WARNING 05: minimum slope used for Conduit 2009660155
  WARNING 05: minimum slope used for Conduit 2009660208
  WARNING 05: minimum slope used for Conduit 2009660262
  WARNING 05: minimum slope used for Conduit 2009660265
  WARNING 05: minimum slope used for Conduit 2009660311
  WARNING 05: minimum slope used for Conduit 2009660362
  WARNING 05: minimum slope used for Conduit 2012390001_2
  WARNING 05: minimum slope used for Conduit 2012660013
  WARNING 05: minimum slope used for Conduit 2012880001
  WARNING 05: minimum slope used for Conduit 205390001
  WARNING 05: minimum slope used for Conduit 205660031
  WARNING 05: minimum slope used for Conduit 205660036
  WARNING 05: minimum slope used for Conduit 205660037
  WARNING 05: minimum slope used for Conduit 205660060
  WARNING 05: minimum slope used for Conduit 206640002
  WARNING 05: minimum slope used for Conduit 206640002_1
  WARNING 05: minimum slope used for Conduit 206640002_2
  WARNING 05: minimum slope used for Conduit 206640003
  WARNING 05: minimum slope used for Conduit 206640005
  WARNING 05: minimum slope used for Conduit 206660003
  WARNING 05: minimum slope used for Conduit 206660004
  WARNING 05: minimum slope used for Conduit 206660005
  WARNING 05: minimum slope used for Conduit 206660006
  WARNING 05: minimum slope used for Conduit 206660007
  WARNING 05: minimum slope used for Conduit 206660008
  WARNING 05: minimum slope used for Conduit 206660011
  WARNING 05: minimum slope used for Conduit 206660022
  WARNING 05: minimum slope used for Conduit 206660023
  WARNING 05: minimum slope used for Conduit 206660024
  WARNING 05: minimum slope used for Conduit 206660025
  WARNING 05: minimum slope used for Conduit 206660042
  WARNING 05: minimum slope used for Conduit 206660048
  WARNING 05: minimum slope used for Conduit 206660086
  WARNING 05: minimum slope used for Conduit 206870007
  WARNING 05: minimum slope used for Conduit 2103640001
  WARNING 05: minimum slope used for Conduit 2103660026
  WARNING 05: minimum slope used for Conduit 2103660027
  WARNING 05: minimum slope used for Conduit 2107390003
  WARNING 05: minimum slope used for Conduit 2107660003
  WARNING 05: minimum slope used for Conduit 2107660005
  WARNING 05: minimum slope used for Conduit 2107660031
  WARNING 05: minimum slope used for Conduit 2107660038
  WARNING 05: minimum slope used for Conduit 2107870004
  WARNING 05: minimum slope used for Conduit 2107870006
  WARNING 05: minimum slope used for Conduit 2107870008
  WARNING 05: minimum slope used for Conduit 2108370006
  WARNING 05: minimum slope used for Conduit 2108390006
  WARNING 05: minimum slope used for Conduit 2108390010
  WARNING 05: minimum slope used for Conduit 2108390018
  WARNING 05: minimum slope used for Conduit 2108390023
  WARNING 05: minimum slope used for Conduit 2108390031
  WARNING 05: minimum slope used for Conduit 2108390032
  WARNING 05: minimum slope used for Conduit 2108390035_1
  WARNING 05: minimum slope used for Conduit 2108560002
  WARNING 05: minimum slope used for Conduit 2108630003
  WARNING 05: minimum slope used for Conduit 2108640004
  WARNING 05: minimum slope used for Conduit 2108660005
  WARNING 05: minimum slope used for Conduit 2108660008
  WARNING 05: minimum slope used for Conduit 2108660013
  WARNING 05: minimum slope used for Conduit 2108660014
  WARNING 05: minimum slope used for Conduit 2108660015
  WARNING 05: minimum slope used for Conduit 2108660019
  WARNING 05: minimum slope used for Conduit 2108660021
  WARNING 05: minimum slope used for Conduit 2108660022
  WARNING 05: minimum slope used for Conduit 2108660024
  WARNING 05: minimum slope used for Conduit 2108660026
  WARNING 05: minimum slope used for Conduit 2108660029
  WARNING 05: minimum slope used for Conduit 2108660034
  WARNING 05: minimum slope used for Conduit 2108660070
  WARNING 05: minimum slope used for Conduit 2108660091
  WARNING 05: minimum slope used for Conduit 2108660121
  WARNING 05: minimum slope used for Conduit 2108660122
  WARNING 05: minimum slope used for Conduit 2108660138
  WARNING 05: minimum slope used for Conduit 2108660139
  WARNING 05: minimum slope used for Conduit 2108660144
  WARNING 05: minimum slope used for Conduit 2108660148
  WARNING 05: minimum slope used for Conduit 2108660149
  WARNING 05: minimum slope used for Conduit 2108660150
  WARNING 05: minimum slope used for Conduit 2108660156
  WARNING 05: minimum slope used for Conduit 2108660158
  WARNING 05: minimum slope used for Conduit 2108660159
  WARNING 05: minimum slope used for Conduit 2108660160
  WARNING 05: minimum slope used for Conduit 2108660162
  WARNING 05: minimum slope used for Conduit 2108660163
  WARNING 05: minimum slope used for Conduit 2108660167
  WARNING 05: minimum slope used for Conduit 2108660169
  WARNING 05: minimum slope used for Conduit 2108660199
  WARNING 05: minimum slope used for Conduit 2108660200
  WARNING 05: minimum slope used for Conduit 2108660205
  WARNING 05: minimum slope used for Conduit 2108880009
  WARNING 05: minimum slope used for Conduit 2109390058
  WARNING 05: minimum slope used for Conduit 2109390060
  WARNING 05: minimum slope used for Conduit 2109390076
  WARNING 05: minimum slope used for Conduit 2109390077
  WARNING 05: minimum slope used for Conduit 2109390083
  WARNING 05: minimum slope used for Conduit 2109660014
  WARNING 05: minimum slope used for Conduit 2109660138
  WARNING 05: minimum slope used for Conduit 2109660198
  WARNING 05: minimum slope used for Conduit 2109660376
  WARNING 05: minimum slope used for Conduit 2109660427
  WARNING 05: minimum slope used for Conduit 2109660517
  WARNING 05: minimum slope used for Conduit 2110660118
  WARNING 05: minimum slope used for Conduit 2110660200
  WARNING 05: minimum slope used for Conduit 2110660234
  WARNING 05: minimum slope used for Conduit 2110660281
  WARNING 05: minimum slope used for Conduit 2111390002
  WARNING 05: minimum slope used for Conduit 2111390003
  WARNING 05: minimum slope used for Conduit 2111660001
  WARNING 05: minimum slope used for Conduit 2111660020
  WARNING 05: minimum slope used for Conduit 2111660039
  WARNING 05: minimum slope used for Conduit 2111660046
  WARNING 05: minimum slope used for Conduit 2111660047
  WARNING 05: minimum slope used for Conduit 2112660143
  WARNING 05: minimum slope used for Conduit 2113660027
  WARNING 05: minimum slope used for Conduit 2113660029
  WARNING 05: minimum slope used for Conduit 2202390002
  WARNING 05: minimum slope used for Conduit 2202660027
  WARNING 05: minimum slope used for Conduit 2203390002
  WARNING 05: minimum slope used for Conduit 2203390007
  WARNING 05: minimum slope used for Conduit 2203660013
  WARNING 05: minimum slope used for Conduit 2203660062
  WARNING 05: minimum slope used for Conduit 2203660069
  WARNING 05: minimum slope used for Conduit 2203660122
  WARNING 05: minimum slope used for Conduit 2203660244
  WARNING 05: minimum slope used for Conduit 2203660258
  WARNING 05: minimum slope used for Conduit 2203660264
  WARNING 05: minimum slope used for Conduit 2203660272
  WARNING 05: minimum slope used for Conduit 2203660287
  WARNING 05: minimum slope used for Conduit 2203660300
  WARNING 05: minimum slope used for Conduit 2203660306
  WARNING 05: minimum slope used for Conduit 2203660310
  WARNING 05: minimum slope used for Conduit 2203660311
  WARNING 05: minimum slope used for Conduit 2203660312
  WARNING 05: minimum slope used for Conduit 2203660320
  WARNING 05: minimum slope used for Conduit 2203880025
  WARNING 05: minimum slope used for Conduit 2203880034
  WARNING 05: minimum slope used for Conduit 2203880041
  WARNING 05: minimum slope used for Conduit 2203880043
  WARNING 05: minimum slope used for Conduit 2203880044
  WARNING 05: minimum slope used for Conduit 2204390005
  WARNING 05: minimum slope used for Conduit 2206660001
  WARNING 05: minimum slope used for Conduit 2206880002
  WARNING 05: minimum slope used for Conduit 2208370002ORF
  WARNING 05: minimum slope used for Conduit 2208390005
  WARNING 05: minimum slope used for Conduit 2208390007
  WARNING 05: minimum slope used for Conduit 2208390009
  WARNING 05: minimum slope used for Conduit 2208390010
  WARNING 05: minimum slope used for Conduit 2208390014
  WARNING 05: minimum slope used for Conduit 2208390022
  WARNING 05: minimum slope used for Conduit 2208390032
  WARNING 05: minimum slope used for Conduit 2208460005
  WARNING 05: minimum slope used for Conduit 2208490002
  WARNING 05: minimum slope used for Conduit 2208490003_1
  WARNING 05: minimum slope used for Conduit 2208490003_2
  WARNING 05: minimum slope used for Conduit 2208660096
  WARNING 05: minimum slope used for Conduit 2208660118
  WARNING 05: minimum slope used for Conduit 2208660130
  WARNING 05: minimum slope used for Conduit 2208660159
  WARNING 05: minimum slope used for Conduit 2208660175
  WARNING 05: minimum slope used for Conduit 2208660191
  WARNING 05: minimum slope used for Conduit 2208660199
  WARNING 05: minimum slope used for Conduit 2208660201
  WARNING 05: minimum slope used for Conduit 2208660209
  WARNING 05: minimum slope used for Conduit 2208660224
  WARNING 05: minimum slope used for Conduit 2208660226
  WARNING 05: minimum slope used for Conduit 2208660235
  WARNING 05: minimum slope used for Conduit 2208660249
  WARNING 05: minimum slope used for Conduit 2208880003
  WARNING 05: minimum slope used for Conduit 2209390025
  WARNING 05: minimum slope used for Conduit 2209660026
  WARNING 05: minimum slope used for Conduit 2209660065
  WARNING 05: minimum slope used for Conduit 2209660088
  WARNING 05: minimum slope used for Conduit 2209660128
  WARNING 05: minimum slope used for Conduit 2209660187
  WARNING 05: minimum slope used for Conduit 2209880001
  WARNING 05: minimum slope used for Conduit 2210660269
  WARNING 05: minimum slope used for Conduit 2210660306
  WARNING 05: minimum slope used for Conduit 2210660361
  WARNING 05: minimum slope used for Conduit 2210660405
  WARNING 05: minimum slope used for Conduit 2212520004
  WARNING 05: minimum slope used for Conduit 2212660024_2
  WARNING 05: minimum slope used for Conduit 2212660200
  WARNING 05: minimum slope used for Conduit 2212660288
  WARNING 05: minimum slope used for Conduit 2213660199
  WARNING 05: minimum slope used for Conduit 2213660200
  WARNING 05: minimum slope used for Conduit 2213660497
  WARNING 05: minimum slope used for Conduit 2213660498
  WARNING 05: minimum slope used for Conduit 2213660499
  WARNING 05: minimum slope used for Conduit 2303390013
  WARNING 05: minimum slope used for Conduit 2303390018
  WARNING 05: minimum slope used for Conduit 2303660010
  WARNING 05: minimum slope used for Conduit 2303660022
  WARNING 05: minimum slope used for Conduit 2303660038
  WARNING 05: minimum slope used for Conduit 2303660040
  WARNING 05: minimum slope used for Conduit 2303660058
  WARNING 05: minimum slope used for Conduit 2303660233
  WARNING 05: minimum slope used for Conduit 2303660240
  WARNING 05: minimum slope used for Conduit 2303660268
  WARNING 05: minimum slope used for Conduit 2303660348
  WARNING 05: minimum slope used for Conduit 2303660355
  WARNING 05: minimum slope used for Conduit 2303660358
  WARNING 05: minimum slope used for Conduit 2303660387
  WARNING 05: minimum slope used for Conduit 2303880008
  WARNING 05: minimum slope used for Conduit 2303880033
  WARNING 05: minimum slope used for Conduit 2304660096
  WARNING 05: minimum slope used for Conduit 2304660124
  WARNING 05: minimum slope used for Conduit 2304660162
  WARNING 05: minimum slope used for Conduit 2304660356
  WARNING 05: minimum slope used for Conduit 2305660001
  WARNING 05: minimum slope used for Conduit 2305660006
  WARNING 05: minimum slope used for Conduit 2305660013
  WARNING 05: minimum slope used for Conduit 2305660018
  WARNING 05: minimum slope used for Conduit 2305660033
  WARNING 05: minimum slope used for Conduit 2305660039
  WARNING 05: minimum slope used for Conduit 2306390014
  WARNING 05: minimum slope used for Conduit 2306660017
  WARNING 05: minimum slope used for Conduit 2306660020
  WARNING 05: minimum slope used for Conduit 2306660023
  WARNING 05: minimum slope used for Conduit 2306660034
  WARNING 05: minimum slope used for Conduit 2306660064
  WARNING 05: minimum slope used for Conduit 2306660104
  WARNING 05: minimum slope used for Conduit 2306660166
  WARNING 05: minimum slope used for Conduit 2306660184
  WARNING 05: minimum slope used for Conduit 2306660208
  WARNING 05: minimum slope used for Conduit 2306660212
  WARNING 05: minimum slope used for Conduit 2306660218
  WARNING 05: minimum slope used for Conduit 2306660225
  WARNING 05: minimum slope used for Conduit 2306660228
  WARNING 05: minimum slope used for Conduit 2306880008
  WARNING 05: minimum slope used for Conduit 2306910049
  WARNING 05: minimum slope used for Conduit 2306910059
  WARNING 05: minimum slope used for Conduit 2306910062
  WARNING 05: minimum slope used for Conduit 2306910066
  WARNING 05: minimum slope used for Conduit 2307640002
  WARNING 05: minimum slope used for Conduit 2308390002
  WARNING 05: minimum slope used for Conduit 2308390015
  WARNING 05: minimum slope used for Conduit 2308640002
  WARNING 05: minimum slope used for Conduit 2308640004
  WARNING 05: minimum slope used for Conduit 2308660060
  WARNING 05: minimum slope used for Conduit 2308660109
  WARNING 05: minimum slope used for Conduit 2309660076
  WARNING 05: minimum slope used for Conduit 2309660101
  WARNING 05: minimum slope used for Conduit 2312390007
  WARNING 05: minimum slope used for Conduit 2312390009
  WARNING 05: minimum slope used for Conduit 2312390010
  WARNING 05: minimum slope used for Conduit 2312390011
  WARNING 05: minimum slope used for Conduit 2312390012
  WARNING 05: minimum slope used for Conduit 2312660026
  WARNING 05: minimum slope used for Conduit 2312660029
  WARNING 05: minimum slope used for Conduit 2312660030
  WARNING 05: minimum slope used for Conduit 2312660034
  WARNING 05: minimum slope used for Conduit 2312660036
  WARNING 05: minimum slope used for Conduit 2312660047
  WARNING 05: minimum slope used for Conduit 2312660051
  WARNING 05: minimum slope used for Conduit 2312660054
  WARNING 05: minimum slope used for Conduit 2312660058
  WARNING 05: minimum slope used for Conduit 2312660084
  WARNING 05: minimum slope used for Conduit 2312660094
  WARNING 05: minimum slope used for Conduit 2312660105
  WARNING 05: minimum slope used for Conduit 2312660110
  WARNING 05: minimum slope used for Conduit 2312660119
  WARNING 05: minimum slope used for Conduit 2312660124
  WARNING 05: minimum slope used for Conduit 2312660141
  WARNING 05: minimum slope used for Conduit 2312660153
  WARNING 05: minimum slope used for Conduit 2312660156
  WARNING 05: minimum slope used for Conduit 2312660190
  WARNING 05: minimum slope used for Conduit 2312660205
  WARNING 05: minimum slope used for Conduit 2312660208
  WARNING 05: minimum slope used for Conduit 2312780007
  WARNING 05: minimum slope used for Conduit 2403640001
  WARNING 05: minimum slope used for Conduit 2403640002
  WARNING 05: minimum slope used for Conduit 2404390013
  WARNING 05: minimum slope used for Conduit 2404640003
  WARNING 05: minimum slope used for Conduit 2404640004
  WARNING 05: minimum slope used for Conduit 2404660134
  WARNING 05: minimum slope used for Conduit 2404660151
  WARNING 05: minimum slope used for Conduit 2404660162
  WARNING 05: minimum slope used for Conduit 2404880004
  WARNING 05: minimum slope used for Conduit 2405530030
  WARNING 05: minimum slope used for Conduit 2405530031
  WARNING 05: minimum slope used for Conduit 2405530111
  WARNING 05: minimum slope used for Conduit 2405530114
  WARNING 05: minimum slope used for Conduit 2405530118
  WARNING 05: minimum slope used for Conduit 2405530124
  WARNING 05: minimum slope used for Conduit 2405530129
  WARNING 05: minimum slope used for Conduit 2405530136
  WARNING 05: minimum slope used for Conduit 2405530138
  WARNING 05: minimum slope used for Conduit 2405530139
  WARNING 05: minimum slope used for Conduit 2405530162
  WARNING 05: minimum slope used for Conduit 2405530170
  WARNING 05: minimum slope used for Conduit 2405530273
  WARNING 05: minimum slope used for Conduit 2405530307
  WARNING 05: minimum slope used for Conduit 2405530402
  WARNING 05: minimum slope used for Conduit 2405530403
  WARNING 05: minimum slope used for Conduit 2405530434
  WARNING 05: minimum slope used for Conduit 2405530435
  WARNING 05: minimum slope used for Conduit 2405530436
  WARNING 05: minimum slope used for Conduit 2405530447
  WARNING 05: minimum slope used for Conduit 2405530455
  WARNING 05: minimum slope used for Conduit 2405660031
  WARNING 05: minimum slope used for Conduit 2405660050
  WARNING 05: minimum slope used for Conduit 2405660072
  WARNING 05: minimum slope used for Conduit 2405660147
  WARNING 05: minimum slope used for Conduit 2405660203
  WARNING 05: minimum slope used for Conduit 2405660218
  WARNING 05: minimum slope used for Conduit 2405660220
  WARNING 05: minimum slope used for Conduit 2405660225
  WARNING 05: minimum slope used for Conduit 2405660227
  WARNING 05: minimum slope used for Conduit 2405660266
  WARNING 05: minimum slope used for Conduit 2405880005
  WARNING 05: minimum slope used for Conduit 2406530003
  WARNING 05: minimum slope used for Conduit 2406530005
  WARNING 05: minimum slope used for Conduit 2406530007
  WARNING 05: minimum slope used for Conduit 2406530009
  WARNING 05: minimum slope used for Conduit 2406530015
  WARNING 05: minimum slope used for Conduit 2406530022
  WARNING 05: minimum slope used for Conduit 2406530026
  WARNING 05: minimum slope used for Conduit 2406530033
  WARNING 05: minimum slope used for Conduit 2406530035
  WARNING 05: minimum slope used for Conduit 2406530036
  WARNING 05: minimum slope used for Conduit 2406530037
  WARNING 05: minimum slope used for Conduit 2406530038
  WARNING 05: minimum slope used for Conduit 2406530039
  WARNING 05: minimum slope used for Conduit 2406530041
  WARNING 05: minimum slope used for Conduit 2406530045
  WARNING 05: minimum slope used for Conduit 2406530049
  WARNING 05: minimum slope used for Conduit 2406530074
  WARNING 05: minimum slope used for Conduit 2406530075
  WARNING 05: minimum slope used for Conduit 2406530086
  WARNING 05: minimum slope used for Conduit 2406530087
  WARNING 05: minimum slope used for Conduit 2406530095
  WARNING 05: minimum slope used for Conduit 2406530099
  WARNING 05: minimum slope used for Conduit 2406530100
  WARNING 05: minimum slope used for Conduit 2406530107
  WARNING 05: minimum slope used for Conduit 2406530114
  WARNING 05: minimum slope used for Conduit 2406530128
  WARNING 05: minimum slope used for Conduit 2406530129
  WARNING 05: minimum slope used for Conduit 2406530172
  WARNING 05: minimum slope used for Conduit 2406530201
  WARNING 05: minimum slope used for Conduit 2406530205
  WARNING 05: minimum slope used for Conduit 2406530220
  WARNING 05: minimum slope used for Conduit 2406530225
  WARNING 05: minimum slope used for Conduit 2406530229
  WARNING 05: minimum slope used for Conduit 2406530260
  WARNING 05: minimum slope used for Conduit 2406530265
  WARNING 05: minimum slope used for Conduit 2406530300
  WARNING 05: minimum slope used for Conduit 2406530304
  WARNING 05: minimum slope used for Conduit 2406530322
  WARNING 05: minimum slope used for Conduit 2406530323
  WARNING 05: minimum slope used for Conduit 2406660014
  WARNING 05: minimum slope used for Conduit 2406660022
  WARNING 05: minimum slope used for Conduit 2406660030
  WARNING 05: minimum slope used for Conduit 2406660045
  WARNING 05: minimum slope used for Conduit 2406660056
  WARNING 05: minimum slope used for Conduit 2406660067
  WARNING 05: minimum slope used for Conduit 2406660075_1
  WARNING 05: minimum slope used for Conduit 2406660159
  WARNING 05: minimum slope used for Conduit 2407640002
  WARNING 05: minimum slope used for Conduit 2407640003
  WARNING 05: minimum slope used for Conduit 2411390005
  WARNING 05: minimum slope used for Conduit 2411660016
  WARNING 05: minimum slope used for Conduit 2412460003
  WARNING 05: minimum slope used for Conduit 2412660141
  WARNING 05: minimum slope used for Conduit 2412660163
  WARNING 05: minimum slope used for Conduit 2412660172
  WARNING 05: minimum slope used for Conduit 2412660208
  WARNING 05: minimum slope used for Conduit 2412660314
  WARNING 05: minimum slope used for Conduit 2504640001
  WARNING 05: minimum slope used for Conduit 2505640001
  WARNING 05: minimum slope used for Conduit 2505660047
  WARNING 05: minimum slope used for Conduit 2505660058
  WARNING 05: minimum slope used for Conduit 2505660064
  WARNING 05: minimum slope used for Conduit 2505660067
  WARNING 05: minimum slope used for Conduit 2505660077
  WARNING 05: minimum slope used for Conduit 2505660086
  WARNING 05: minimum slope used for Conduit 2505660114
  WARNING 05: minimum slope used for Conduit 2505660123
  WARNING 05: minimum slope used for Conduit 2505660130
  WARNING 05: minimum slope used for Conduit 2505660163
  WARNING 05: minimum slope used for Conduit 2506530001
  WARNING 05: minimum slope used for Conduit 2506530108
  WARNING 05: minimum slope used for Conduit 2506530121
  WARNING 05: minimum slope used for Conduit 2506530192
  WARNING 05: minimum slope used for Conduit 2506530245
  WARNING 05: minimum slope used for Conduit 2506530249
  WARNING 05: minimum slope used for Conduit 2506530250
  WARNING 05: minimum slope used for Conduit 2506660020
  WARNING 05: minimum slope used for Conduit 2506660024
  WARNING 05: minimum slope used for Conduit 2506660026
  WARNING 05: minimum slope used for Conduit 2506660029
  WARNING 05: minimum slope used for Conduit 2506660034
  WARNING 05: minimum slope used for Conduit 2506660039
  WARNING 05: minimum slope used for Conduit 2506660046
  WARNING 05: minimum slope used for Conduit 2506660075
  WARNING 05: minimum slope used for Conduit 2506660077
  WARNING 05: minimum slope used for Conduit 2506660102
  WARNING 05: minimum slope used for Conduit 2506660124
  WARNING 05: minimum slope used for Conduit 2506660133
  WARNING 05: minimum slope used for Conduit 2506660143
  WARNING 05: minimum slope used for Conduit 2506660145
  WARNING 05: minimum slope used for Conduit 2506660146
  WARNING 05: minimum slope used for Conduit 2506660148
  WARNING 05: minimum slope used for Conduit 2506660150
  WARNING 05: minimum slope used for Conduit 2506880005
  WARNING 05: minimum slope used for Conduit 2507640001
  WARNING 05: minimum slope used for Conduit 2507640004
  WARNING 05: minimum slope used for Conduit 2507660002
  WARNING 05: minimum slope used for Conduit 2511390023
  WARNING 05: minimum slope used for Conduit 2511390036
  WARNING 05: minimum slope used for Conduit 2511460001
  WARNING 05: minimum slope used for Conduit 2511660036
  WARNING 05: minimum slope used for Conduit 2511660057
  WARNING 05: minimum slope used for Conduit 2511660059
  WARNING 05: minimum slope used for Conduit 2511660080
  WARNING 05: minimum slope used for Conduit 2511660083
  WARNING 05: minimum slope used for Conduit 2511660134
  WARNING 05: minimum slope used for Conduit 2511660219
  WARNING 05: minimum slope used for Conduit 2511660225
  WARNING 05: minimum slope used for Conduit 2511660231
  WARNING 05: minimum slope used for Conduit 2511660313
  WARNING 05: minimum slope used for Conduit 2511660337
  WARNING 05: minimum slope used for Conduit 2511660338
  WARNING 05: minimum slope used for Conduit 2511660342
  WARNING 05: minimum slope used for Conduit 2511660356
  WARNING 05: minimum slope used for Conduit 2511660385
  WARNING 05: minimum slope used for Conduit 2511660425
  WARNING 05: minimum slope used for Conduit 2511660438
  WARNING 05: minimum slope used for Conduit 2511660447
  WARNING 05: minimum slope used for Conduit 2511660461
  WARNING 05: minimum slope used for Conduit 2511660464
  WARNING 05: minimum slope used for Conduit 2511660586
  WARNING 05: minimum slope used for Conduit 2512460007
  WARNING 05: minimum slope used for Conduit 2512660005
  WARNING 05: minimum slope used for Conduit 2512660110
  WARNING 05: minimum slope used for Conduit 2512660128
  WARNING 05: minimum slope used for Conduit 2512660133
  WARNING 05: minimum slope used for Conduit 2512660135
  WARNING 05: minimum slope used for Conduit 2513880003
  WARNING 05: minimum slope used for Conduit 2606640001
  WARNING 05: minimum slope used for Conduit 2606660001
  WARNING 05: minimum slope used for Conduit 2606660006
  WARNING 05: minimum slope used for Conduit 2606910027
  WARNING 05: minimum slope used for Conduit 2607640001
  WARNING 05: minimum slope used for Conduit 2610640003
  WARNING 05: minimum slope used for Conduit 2610640006
  WARNING 05: minimum slope used for Conduit 2611660056
  WARNING 05: minimum slope used for Conduit 2611660360
  WARNING 05: minimum slope used for Conduit 2611660361
  WARNING 05: minimum slope used for Conduit 2611660362
  WARNING 05: minimum slope used for Conduit 2710640004
  WARNING 05: minimum slope used for Conduit 2710640005
  WARNING 05: minimum slope used for Conduit 2710660010
  WARNING 05: minimum slope used for Conduit 2710660017
  WARNING 05: minimum slope used for Conduit 2710660022
  WARNING 05: minimum slope used for Conduit 2710660032
  WARNING 05: minimum slope used for Conduit 2710660043
  WARNING 05: minimum slope used for Conduit 2710660051
  WARNING 05: minimum slope used for Conduit 2710660056
  WARNING 05: minimum slope used for Conduit 2710660060
  WARNING 05: minimum slope used for Conduit 2710660062
  WARNING 05: minimum slope used for Conduit 2710660063
  WARNING 05: minimum slope used for Conduit 2710660065
  WARNING 05: minimum slope used for Conduit 2710660069
  WARNING 05: minimum slope used for Conduit 2710660084
  WARNING 05: minimum slope used for Conduit 2710660136
  WARNING 05: minimum slope used for Conduit 2710660144
  WARNING 05: minimum slope used for Conduit 2710660148
  WARNING 05: minimum slope used for Conduit 2710660153
  WARNING 05: minimum slope used for Conduit 2710660162
  WARNING 05: minimum slope used for Conduit 2710660169
  WARNING 05: minimum slope used for Conduit 2710910102
  WARNING 05: minimum slope used for Conduit 2711390024
  WARNING 05: minimum slope used for Conduit 2711660037
  WARNING 05: minimum slope used for Conduit 2711660168
  WARNING 05: minimum slope used for Conduit 2711660189
  WARNING 05: minimum slope used for Conduit 2711660198
  WARNING 05: minimum slope used for Conduit 2711660215
  WARNING 05: minimum slope used for Conduit 2711660250
  WARNING 05: minimum slope used for Conduit 2711660252
  WARNING 05: minimum slope used for Conduit 2711660262
  WARNING 05: minimum slope used for Conduit 2711660305
  WARNING 05: minimum slope used for Conduit 2711660314
  WARNING 05: minimum slope used for Conduit 2711660348
  WARNING 05: minimum slope used for Conduit 2711660386
  WARNING 05: minimum slope used for Conduit 2711660438
  WARNING 05: minimum slope used for Conduit 2712390001
  WARNING 05: minimum slope used for Conduit 2712460002
  WARNING 05: minimum slope used for Conduit 2712660005
  WARNING 05: minimum slope used for Conduit 2712660019
  WARNING 05: minimum slope used for Conduit 2712660022
  WARNING 05: minimum slope used for Conduit 2810660008
  WARNING 05: minimum slope used for Conduit 2810660030
  WARNING 05: minimum slope used for Conduit 2810660043
  WARNING 05: minimum slope used for Conduit 2810660048
  WARNING 05: minimum slope used for Conduit 2810660067
  WARNING 05: minimum slope used for Conduit 2810660084
  WARNING 05: minimum slope used for Conduit 2810660104
  WARNING 05: minimum slope used for Conduit 2810660107
  WARNING 05: minimum slope used for Conduit 2810660125
  WARNING 05: minimum slope used for Conduit 2810660127
  WARNING 05: minimum slope used for Conduit 2810660141
  WARNING 05: minimum slope used for Conduit 2810660176
  WARNING 05: minimum slope used for Conduit 2810660198
  WARNING 05: minimum slope used for Conduit 2810660200
  WARNING 05: minimum slope used for Conduit 2810660322
  WARNING 05: minimum slope used for Conduit 2810660332
  WARNING 05: minimum slope used for Conduit 2811660010
  WARNING 05: minimum slope used for Conduit 2811660169
  WARNING 05: minimum slope used for Conduit 2811660364
  WARNING 05: minimum slope used for Conduit 2811660399
  WARNING 05: minimum slope used for Conduit 2812390003
  WARNING 05: minimum slope used for Conduit 2812660048
  WARNING 05: minimum slope used for Conduit 2812660061
  WARNING 05: minimum slope used for Conduit 2812660078
  WARNING 05: minimum slope used for Conduit 2812660086
  WARNING 05: minimum slope used for Conduit 2814660033
  WARNING 05: minimum slope used for Conduit 2814660079
  WARNING 05: minimum slope used for Conduit 2814660195
  WARNING 05: minimum slope used for Conduit 2814660197
  WARNING 05: minimum slope used for Conduit 2814660201
  WARNING 05: minimum slope used for Conduit 2814660206
  WARNING 05: minimum slope used for Conduit 2814660227
  WARNING 05: minimum slope used for Conduit 2814880006
  WARNING 05: minimum slope used for Conduit 2815660018
  WARNING 05: minimum slope used for Conduit 2910390016
  WARNING 05: minimum slope used for Conduit 2910460002
  WARNING 05: minimum slope used for Conduit 2910660098
  WARNING 05: minimum slope used for Conduit 2910660120
  WARNING 05: minimum slope used for Conduit 2910660135
  WARNING 05: minimum slope used for Conduit 2910660149
  WARNING 05: minimum slope used for Conduit 2910660159
  WARNING 05: minimum slope used for Conduit 2911660001
  WARNING 05: minimum slope used for Conduit 2914660015
  WARNING 05: minimum slope used for Conduit 2914660023
  WARNING 05: minimum slope used for Conduit 2914660031
  WARNING 05: minimum slope used for Conduit 2914660038
  WARNING 05: minimum slope used for Conduit 2914660045
  WARNING 05: minimum slope used for Conduit 2914660056
  WARNING 05: minimum slope used for Conduit 2914660131
  WARNING 05: minimum slope used for Conduit 2914660137
  WARNING 05: minimum slope used for Conduit 2914660156
  WARNING 05: minimum slope used for Conduit 2914880002
  WARNING 05: minimum slope used for Conduit 2915380002
  WARNING 05: minimum slope used for Conduit 2915390003
  WARNING 05: minimum slope used for Conduit 2915490001
  WARNING 05: minimum slope used for Conduit 2915660010
  WARNING 05: minimum slope used for Conduit 2915660013
  WARNING 05: minimum slope used for Conduit 2915660016
  WARNING 05: minimum slope used for Conduit 2915660018
  WARNING 05: minimum slope used for Conduit 2915660027
  WARNING 05: minimum slope used for Conduit 2915660035
  WARNING 05: minimum slope used for Conduit 2915660046
  WARNING 05: minimum slope used for Conduit 2915660050
  WARNING 05: minimum slope used for Conduit 2915660054
  WARNING 05: minimum slope used for Conduit 2915660063
  WARNING 05: minimum slope used for Conduit 2915660069
  WARNING 05: minimum slope used for Conduit 2915660075
  WARNING 05: minimum slope used for Conduit 2915660082
  WARNING 05: minimum slope used for Conduit 2915660087
  WARNING 05: minimum slope used for Conduit 2915660089
  WARNING 05: minimum slope used for Conduit 2915660093
  WARNING 05: minimum slope used for Conduit 2915660094
  WARNING 05: minimum slope used for Conduit 2915660105
  WARNING 05: minimum slope used for Conduit 2915660116
[...]
  WARNING 05: minimum slope used for Conduit 803660057
  WARNING 05: minimum slope used for Conduit 803660064
  WARNING 05: minimum slope used for Conduit 803660082
  WARNING 05: minimum slope used for Conduit 803660083
  WARNING 05: minimum slope used for Conduit 803660114
  WARNING 05: minimum slope used for Conduit 803660131
  WARNING 05: minimum slope used for Conduit 803660141
  WARNING 05: minimum slope used for Conduit 803660143
  WARNING 05: minimum slope used for Conduit 803660147
  WARNING 05: minimum slope used for Conduit 803660152
  WARNING 05: minimum slope used for Conduit 803660156
  WARNING 05: minimum slope used for Conduit 803660185
  WARNING 05: minimum slope used for Conduit 803660219
  WARNING 05: minimum slope used for Conduit 803660229
  WARNING 05: minimum slope used for Conduit 803660241
  WARNING 05: minimum slope used for Conduit 803660253
  WARNING 05: minimum slope used for Conduit 803660261
  WARNING 05: minimum slope used for Conduit 803660272_1
  WARNING 05: minimum slope used for Conduit 803780004
  WARNING 05: minimum slope used for Conduit 803880015
  WARNING 05: minimum slope used for Conduit 803880020
  WARNING 05: minimum slope used for Conduit 803880035
  WARNING 05: minimum slope used for Conduit 806390001
  WARNING 05: minimum slope used for Conduit 806390005
  WARNING 05: minimum slope used for Conduit 806390009
  WARNING 05: minimum slope used for Conduit 806660037
  WARNING 05: minimum slope used for Conduit 806660114
  WARNING 05: minimum slope used for Conduit 806660167
  WARNING 05: minimum slope used for Conduit 806660227
  WARNING 05: minimum slope used for Conduit 808390001
  WARNING 05: minimum slope used for Conduit 808390002
  WARNING 05: minimum slope used for Conduit 808390003
  WARNING 05: minimum slope used for Conduit 808390004
  WARNING 05: minimum slope used for Conduit 808390006
  WARNING 05: minimum slope used for Conduit 808390008
  WARNING 05: minimum slope used for Conduit 808390018
  WARNING 05: minimum slope used for Conduit 808390021
  WARNING 05: minimum slope used for Conduit 808660004
  WARNING 05: minimum slope used for Conduit 808660013
  WARNING 05: minimum slope used for Conduit 808660019
  WARNING 05: minimum slope used for Conduit 808660035
  WARNING 05: minimum slope used for Conduit 808660055
  WARNING 05: minimum slope used for Conduit 808660067
  WARNING 05: minimum slope used for Conduit 808660083
  WARNING 05: minimum slope used for Conduit 808660088
  WARNING 05: minimum slope used for Conduit 808660093
  WARNING 05: minimum slope used for Conduit 808660097
  WARNING 05: minimum slope used for Conduit 808660120
  WARNING 05: minimum slope used for Conduit 808660174
  WARNING 05: minimum slope used for Conduit 808660197
  WARNING 05: minimum slope used for Conduit 808660240
  WARNING 05: minimum slope used for Conduit 808660260
  WARNING 05: minimum slope used for Conduit 808660299
  WARNING 05: minimum slope used for Conduit 808660332
  WARNING 05: minimum slope used for Conduit 808660354
  WARNING 05: minimum slope used for Conduit 808660369
  WARNING 05: minimum slope used for Conduit 808780003
  WARNING 05: minimum slope used for Conduit 808880011
  WARNING 05: minimum slope used for Conduit 808880019
  WARNING 05: minimum slope used for Conduit 808880022
  WARNING 05: minimum slope used for Conduit 808880035
  WARNING 05: minimum slope used for Conduit 808880036
  WARNING 05: minimum slope used for Conduit 808880037
  WARNING 05: minimum slope used for Conduit 809390001
  WARNING 05: minimum slope used for Conduit 809520009
  WARNING 05: minimum slope used for Conduit 809640001
  WARNING 05: minimum slope used for Conduit 809640002
  WARNING 05: minimum slope used for Conduit 809640003
  WARNING 05: minimum slope used for Conduit 809640004
  WARNING 05: minimum slope used for Conduit 809640005
  WARNING 05: minimum slope used for Conduit 809640006
  WARNING 05: minimum slope used for Conduit 809640008
  WARNING 05: minimum slope used for Conduit 809660096
  WARNING 05: minimum slope used for Conduit 809660104
  WARNING 05: minimum slope used for Conduit 809660127
  WARNING 05: minimum slope used for Conduit 809660135
  WARNING 05: minimum slope used for Conduit 809660137
  WARNING 05: minimum slope used for Conduit 809660162
  WARNING 05: minimum slope used for Conduit 809660163
  WARNING 05: minimum slope used for Conduit 809660166
  WARNING 05: minimum slope used for Conduit 810640002
  WARNING 05: minimum slope used for Conduit 810640003
  WARNING 05: minimum slope used for Conduit 810640004
  WARNING 05: minimum slope used for Conduit 810660089_2
  WARNING 05: minimum slope used for Conduit 810660101
  WARNING 05: minimum slope used for Conduit 811660001
  WARNING 05: minimum slope used for Conduit 811660022
  WARNING 05: minimum slope used for Conduit 811660041
  WARNING 05: minimum slope used for Conduit 811660043
  WARNING 05: minimum slope used for Conduit 811660044
  WARNING 05: minimum slope used for Conduit 811660046
  WARNING 05: minimum slope used for Conduit 902640001
  WARNING 05: minimum slope used for Conduit 902660002
  WARNING 05: minimum slope used for Conduit 902690004
  WARNING 05: minimum slope used for Conduit 903390003
  WARNING 05: minimum slope used for Conduit 903660013
  WARNING 05: minimum slope used for Conduit 903660035
  WARNING 05: minimum slope used for Conduit 903660075
  WARNING 05: minimum slope used for Conduit 903660098
  WARNING 05: minimum slope used for Conduit 903660194
  WARNING 05: minimum slope used for Conduit 903660247
  WARNING 05: minimum slope used for Conduit 903826
  WARNING 05: minimum slope used for Conduit 904724
  WARNING 05: minimum slope used for Conduit 904726
  WARNING 05: minimum slope used for Conduit 905124
  WARNING 05: minimum slope used for Conduit 905126
  WARNING 05: minimum slope used for Conduit 905520002
  WARNING 05: minimum slope used for Conduit 905660185
  WARNING 05: minimum slope used for Conduit 905660195
  WARNING 05: minimum slope used for Conduit 905700
  WARNING 05: minimum slope used for Conduit 905702
  WARNING 05: minimum slope used for Conduit 905704
  WARNING 05: minimum slope used for Conduit 905714
  WARNING 05: minimum slope used for Conduit 905718
  WARNING 05: minimum slope used for Conduit 905722
  WARNING 05: minimum slope used for Conduit 906390015
  WARNING 05: minimum slope used for Conduit 906390024
  WARNING 05: minimum slope used for Conduit 906660076
  WARNING 05: minimum slope used for Conduit 906660148
  WARNING 05: minimum slope used for Conduit 906660169
  WARNING 05: minimum slope used for Conduit 906660179
  WARNING 05: minimum slope used for Conduit 906660185
  WARNING 05: minimum slope used for Conduit 906660198
  WARNING 05: minimum slope used for Conduit 906660285
  WARNING 05: minimum slope used for Conduit 906660288
  WARNING 05: minimum slope used for Conduit 906660293
  WARNING 05: minimum slope used for Conduit 907390001
  WARNING 05: minimum slope used for Conduit 907390004
  WARNING 05: minimum slope used for Conduit 907390013
  WARNING 05: minimum slope used for Conduit 907490001
  WARNING 05: minimum slope used for Conduit 907490002
  WARNING 05: minimum slope used for Conduit 907660010
  WARNING 05: minimum slope used for Conduit 907660070
  WARNING 05: minimum slope used for Conduit 907660142
  WARNING 05: minimum slope used for Conduit 907880005
  WARNING 05: minimum slope used for Conduit 908390006
  WARNING 05: minimum slope used for Conduit 908390007
  WARNING 05: minimum slope used for Conduit 908390012
  WARNING 05: minimum slope used for Conduit 908390014
  WARNING 05: minimum slope used for Conduit 908390015
  WARNING 05: minimum slope used for Conduit 908390016
  WARNING 05: minimum slope used for Conduit 908660056
  WARNING 05: minimum slope used for Conduit 908660077
  WARNING 05: minimum slope used for Conduit 908660094
  WARNING 05: minimum slope used for Conduit 908660098
  WARNING 05: minimum slope used for Conduit 908660103
  WARNING 05: minimum slope used for Conduit 908660124
  WARNING 05: minimum slope used for Conduit 908660125
  WARNING 05: minimum slope used for Conduit 908660146
  WARNING 05: minimum slope used for Conduit 908660149
  WARNING 05: minimum slope used for Conduit 908660164
  WARNING 05: minimum slope used for Conduit 908660175
  WARNING 05: minimum slope used for Conduit 908660187
  WARNING 05: minimum slope used for Conduit 908660196
  WARNING 05: minimum slope used for Conduit 908660211
  WARNING 05: minimum slope used for Conduit 908660229
  WARNING 05: minimum slope used for Conduit 908660248
  WARNING 05: minimum slope used for Conduit 908660261
  WARNING 05: minimum slope used for Conduit 908660262
  WARNING 05: minimum slope used for Conduit 908660263
  WARNING 05: minimum slope used for Conduit 908880018
  WARNING 05: minimum slope used for Conduit 909130
  WARNING 05: minimum slope used for Conduit 909390006
  WARNING 05: minimum slope used for Conduit 909390008
  WARNING 05: minimum slope used for Conduit 909390009
  WARNING 05: minimum slope used for Conduit 909660015
  WARNING 05: minimum slope used for Conduit 909660061
  WARNING 05: minimum slope used for Conduit 909660079
  WARNING 05: minimum slope used for Conduit 909660085
  WARNING 05: minimum slope used for Conduit 909660104
  WARNING 05: minimum slope used for Conduit 909660127
  WARNING 05: minimum slope used for Conduit 909660129
  WARNING 05: minimum slope used for Conduit 909660157
  WARNING 05: minimum slope used for Conduit 910390002
  WARNING 05: minimum slope used for Conduit 910390003
  WARNING 05: minimum slope used for Conduit 910390012
  WARNING 05: minimum slope used for Conduit 910660037
  WARNING 05: minimum slope used for Conduit 910660061
  WARNING 05: minimum slope used for Conduit 910660076
  WARNING 05: minimum slope used for Conduit 910660089
  WARNING 05: minimum slope used for Conduit 910660101
  WARNING 05: minimum slope used for Conduit 910660115
  WARNING 05: minimum slope used for Conduit 910660137
  WARNING 05: minimum slope used for Conduit 910660142
  WARNING 05: minimum slope used for Conduit 910660157
  WARNING 05: minimum slope used for Conduit 910660197
  WARNING 05: minimum slope used for Conduit 910660225
  WARNING 05: minimum slope used for Conduit 910660227
  WARNING 05: minimum slope used for Conduit 910660242
  WARNING 05: minimum slope used for Conduit 910910041
  WARNING 05: minimum slope used for Conduit 911660005
  WARNING 05: minimum slope used for Conduit 911660056
  WARNING 05: minimum slope used for Conduit 911660059
  WARNING 05: minimum slope used for Conduit 911660067
  WARNING 05: minimum slope used for Conduit 911660076
  WARNING 05: minimum slope used for Conduit 911880002
  WARNING 05: minimum slope used for Conduit 912714
  WARNING 05: minimum slope used for Conduit BC_DMH_1
  WARNING 05: minimum slope used for Conduit BC_DMH_2
  WARNING 05: minimum slope used for Conduit BKD006-022
  WARNING 05: minimum slope used for Conduit BKD006-032
  WARNING 05: minimum slope used for Conduit BKD007-008
  WARNING 05: minimum slope used for Conduit BKD018-007
  WARNING 05: minimum slope used for Conduit BKD098-019
  WARNING 05: minimum slope used for Conduit BKD301-029
  WARNING 05: minimum slope used for Conduit BKTD001-026
  WARNING 05: minimum slope used for Conduit BKTD999-028
  WARNING 05: minimum slope used for Conduit BULF001
  WARNING 05: minimum slope used for Conduit BULF002
  WARNING 05: minimum slope used for Conduit BULF003
  WARNING 05: minimum slope used for Conduit BULF005
  WARNING 05: minimum slope used for Conduit BULF008
  WARNING 05: minimum slope used for Conduit BULF009
  WARNING 05: minimum slope used for Conduit BULF010
  WARNING 05: minimum slope used for Conduit BULF011
  WARNING 05: minimum slope used for Conduit BULF012
  WARNING 05: minimum slope used for Conduit BULF013
  WARNING 05: minimum slope used for Conduit BULF014
  WARNING 05: minimum slope used for Conduit BULF015
  WARNING 05: minimum slope used for Conduit BULF017
  WARNING 05: minimum slope used for Conduit BULF020
  WARNING 05: minimum slope used for Conduit BULF021
  WARNING 05: minimum slope used for Conduit BULF022
  WARNING 05: minimum slope used for Conduit BULF025
  WARNING 05: minimum slope used for Conduit BULF028
  WARNING 05: minimum slope used for Conduit BULF029
  WARNING 05: minimum slope used for Conduit BULF030
  WARNING 05: minimum slope used for Conduit CBB2200
  WARNING 05: minimum slope used for Conduit CBB2250
  WARNING 05: minimum slope used for Conduit CBB3000
  WARNING 05: minimum slope used for Conduit CBB3100
  WARNING 05: minimum slope used for Conduit CBB3550
  WARNING 05: minimum slope used for Conduit CBB3900
  WARNING 05: minimum slope used for Conduit CBB4000
  WARNING 05: minimum slope used for Conduit CBB4500
  WARNING 05: minimum slope used for Conduit CBB6100
  WARNING 05: minimum slope used for Conduit CBB6900
  WARNING 05: minimum slope used for Conduit CBB7000
  WARNING 05: minimum slope used for Conduit CBB7100
  WARNING 05: minimum slope used for Conduit ChandlerPond
  WARNING 05: minimum slope used for Conduit Charles001000
  WARNING 05: minimum slope used for Conduit Charles010500
  WARNING 05: minimum slope used for Conduit Charles013000
  WARNING 05: minimum slope used for Conduit Charles020000
  WARNING 05: minimum slope used for Conduit Charles039000
  WARNING 05: minimum slope used for Conduit Charles060000
  WARNING 05: minimum slope used for Conduit Charles070000
  WARNING 05: minimum slope used for Conduit Charles092000
  WARNING 05: minimum slope used for Conduit Charles099000
  WARNING 05: minimum slope used for Conduit Charles102000
  WARNING 05: minimum slope used for Conduit Charles112000_1
  WARNING 05: minimum slope used for Conduit Charles112000_2
  WARNING 05: minimum slope used for Conduit Charles115000
  WARNING 05: minimum slope used for Conduit Charles147000
  WARNING 05: minimum slope used for Conduit Charles164000
  WARNING 05: minimum slope used for Conduit Charles184000
  WARNING 05: minimum slope used for Conduit Charles217000
  WARNING 05: minimum slope used for Conduit Charles254000
  WARNING 05: minimum slope used for Conduit Charles270000
  WARNING 05: minimum slope used for Conduit Charles294000
  WARNING 05: minimum slope used for Conduit CHRoutlet
  WARNING 05: minimum slope used for Conduit FP1
  WARNING 05: minimum slope used for Conduit FP2
  WARNING 05: minimum slope used for Conduit FP3
  WARNING 05: minimum slope used for Conduit HomeDepotBasin
  WARNING 05: minimum slope used for Conduit LeverettPond
  WARNING 05: minimum slope used for Conduit Mother11000
  WARNING 05: minimum slope used for Conduit MR009
  WARNING 05: minimum slope used for Conduit MR010
  WARNING 05: minimum slope used for Conduit MR011_1
  WARNING 05: minimum slope used for Conduit MR011_2
  WARNING 05: minimum slope used for Conduit MR012
  WARNING 05: minimum slope used for Conduit MR016
  WARNING 05: minimum slope used for Conduit MR019
  WARNING 05: minimum slope used for Conduit MR023
  WARNING 05: minimum slope used for Conduit MR024
  WARNING 05: minimum slope used for Conduit MR026_1
  WARNING 05: minimum slope used for Conduit MR026_2
  WARNING 05: minimum slope used for Conduit MR026_3
  WARNING 05: minimum slope used for Conduit MR027
  WARNING 05: minimum slope used for Conduit MR029
  WARNING 05: minimum slope used for Conduit MR032
  WARNING 05: minimum slope used for Conduit MR045
  WARNING 05: minimum slope used for Conduit MR052
  WARNING 05: minimum slope used for Conduit MR058
  WARNING 05: minimum slope used for Conduit MR066
  WARNING 05: minimum slope used for Conduit MR071
  WARNING 05: minimum slope used for Conduit MR072_1
  WARNING 05: minimum slope used for Conduit MR072_2
  WARNING 05: minimum slope used for Conduit MR072_3
  WARNING 05: minimum slope used for Conduit MR073
  WARNING 05: minimum slope used for Conduit MR074
  WARNING 05: minimum slope used for Conduit MR075
  WARNING 05: minimum slope used for Conduit MR077
  WARNING 05: minimum slope used for Conduit MR094
  WARNING 05: minimum slope used for Conduit MR095
  WARNING 05: minimum slope used for Conduit MR100
  WARNING 05: minimum slope used for Conduit MR119
  WARNING 05: minimum slope used for Conduit MR175
  WARNING 05: minimum slope used for Conduit MR189
  WARNING 05: minimum slope used for Conduit MR194
  WARNING 05: minimum slope used for Conduit MR210
  WARNING 05: minimum slope used for Conduit MR245
  WARNING 05: minimum slope used for Conduit MR260
  WARNING 05: minimum slope used for Conduit MR268
  WARNING 05: minimum slope used for Conduit MR290
  WARNING 05: minimum slope used for Conduit Neponset010000
  WARNING 05: minimum slope used for Conduit Neponset015000
  WARNING 05: minimum slope used for Conduit Neponset020000
  WARNING 05: minimum slope used for Conduit Neponset028000
  WARNING 05: minimum slope used for Conduit Neponset030000
  WARNING 05: minimum slope used for Conduit Neponset056000
  WARNING 05: minimum slope used for Conduit Neponset094000
  WARNING 05: minimum slope used for Conduit OldDamLock
  WARNING 05: minimum slope used for Conduit SargentPond
  WARNING 05: minimum slope used for Conduit SawMill3500
  WARNING 05: minimum slope used for Conduit SpraguePondBk1
  WARNING 05: minimum slope used for Conduit SpraguePondBk2
  WARNING 05: minimum slope used for Conduit Stony0600
  WARNING 05: minimum slope used for Conduit StonyWBranch
  WARNING 05: minimum slope used for Conduit TurtlePond
  WARNING 05: minimum slope used for Conduit USGS01103280
  WARNING 05: minimum slope used for Conduit USGS01103500
  WARNING 05: minimum slope used for Conduit USGS01104000
  WARNING 05: minimum slope used for Conduit USGS01104200
  WARNING 05: minimum slope used for Conduit USGS01104500
  WARNING 05: minimum slope used for Conduit USGS01104615
  WARNING 05: minimum slope used for Conduit USGS01104683
  WARNING 05: minimum slope used for Conduit USGS01104705
  WARNING 05: minimum slope used for Conduit USGS01104715
  WARNING 05: minimum slope used for Conduit USGS01105000
  WARNING 05: minimum slope used for Conduit USGS01105554
  WARNING 05: minimum slope used for Conduit W27LRE010-2
  WARNING 05: minimum slope used for Conduit W29MRE013-1
  WARNING 05: minimum slope used for Conduit WillowPond
  WARNING 10: crest elevation raised to downstream invert for regulator Link BGH1OR
  WARNING 10: crest elevation raised to downstream invert for regulator Link BrooklineAve
  
  ****************
  Analysis Options
  ****************
  Flow Units ............... CFS
  Process Models:
    Rainfall/Runoff ........ YES
    RDII ................... NO
    Snowmelt ............... YES
    Groundwater ............ YES
    Flow Routing ........... YES
    Ponding Allowed ........ YES
    Water Quality .......... NO
  Infiltration Method ...... GREEN_AMPT
  Flow Routing Method ...... DYNWAVE
  Surcharge Method ......... EXTRAN
  Starting Date ............ 09/29/2015 00:00:00
  Ending Date .............. 10/01/2015 00:00:00
  Antecedent Dry Days ...... 6.0
  Report Time Step ......... 00:15:00
  Wet Time Step ............ 00:05:00
  Dry Time Step ............ 00:05:00
  Routing Time Step ........ 5.00 sec
  Variable Time Step ....... YES
  Maximum Trials ........... 8
  Number of Threads ........ 4
  Head Tolerance ........... 0.005000 ft
  
  
  *********************
  Rainfall File Summary
  *********************
  Station    First        Last         Recording   Periods    Periods    Periods
  ID         Date         Date         Frequency  w/Precip    Missing    Malfunc.
  -------------------------------------------------------------------------------
  
  
  ERROR 317: cannot open rainfall data file D:\BWSC_Models\PCSWMM Professional 2D\DC004_files\BostonPrecip.dat.

  Analysis begun on:  Wed Jun 24 06:38:47 2026
  Analysis ended on:  Wed Jun 24 06:38:47 2026
  Total elapsed time: < 1 sec