
  EPA STORM WATER MANAGEMENT MODEL - VERSION 5.2 (Build 5.2.4)
  ------------------------------------------------------------

  WARNING 04: minimum elevation drop used for Conduit SM122939
  WARNING 03: negative offset ignored for Link SM126801
  WARNING 04: minimum elevation drop used for Conduit SM126801
  WARNING 02: maximum depth increased for Node HEI53
  WARNING 02: maximum depth increased for Node HEI54
  WARNING 02: maximum depth increased for Node HEI55
  WARNING 02: maximum depth increased for Node HEI56
  WARNING 02: maximum depth increased for Node HEI57
  WARNING 02: maximum depth increased for Node HEI58
  WARNING 02: maximum depth increased for Node HEI72
  WARNING 02: maximum depth increased for Node HEI73
  WARNING 02: maximum depth increased for Node RN123828
  WARNING 02: maximum depth increased for Node RN127145
  
  ****************
  Analysis Options
  ****************
  Flow Units ............... CFS
  Process Models:
    Rainfall/Runoff ........ YES
    RDII ................... NO
    Snowmelt ............... NO
    Groundwater ............ NO
    Flow Routing ........... YES
    Ponding Allowed ........ NO
    Water Quality .......... NO
  Infiltration Method ...... CURVE_NUMBER
  Flow Routing Method ...... DYNWAVE
  Surcharge Method ......... EXTRAN
  Starting Date ............ 01/01/2002 00:00:00
  Ending Date .............. 01/03/2002 00:00:00
  Antecedent Dry Days ...... 5.0
  Report Time Step ......... 00:01:00
  Wet Time Step ............ 00:00:05
  Dry Time Step ............ 00:00:05
  Routing Time Step ........ 0.05 sec
  Variable Time Step ....... YES
  Maximum Trials ........... 8
  Number of Threads ........ 1
  Head Tolerance ........... 0.000010 ft
  
  
  ERROR 323: cannot open runoff interface file D:\2018\danWeirdWeirProblem.inp.aux.ROF.

  Analysis begun on:  Wed Jun 24 06:39:34 2026
  Analysis ended on:  Wed Jun 24 06:39:35 2026
  Total elapsed time: 00:00:01