
  EPA STORM WATER MANAGEMENT MODEL - VERSION 5.2 (Build 5.2.4)
  ------------------------------------------------------------

  WARNING 04: minimum elevation drop used for Conduit 2357569
  WARNING 02: maximum depth increased for Node 235150
  
  ****************
  Analysis Options
  ****************
  Flow Units ............... CFS
  Process Models:
    Rainfall/Runoff ........ NO
    RDII ................... NO
    Snowmelt ............... NO
    Groundwater ............ NO
    Flow Routing ........... YES
    Ponding Allowed ........ YES
    Water Quality .......... NO
  Flow Routing Method ...... DYNWAVE
  Surcharge Method ......... EXTRAN
  Starting Date ............ 06/16/2010 00:00:00
  Ending Date .............. 06/18/2010 00:00:00
  Antecedent Dry Days ...... 0.0
  Report Time Step ......... 00:01:30
  Routing Time Step ........ 30.00 sec
  Variable Time Step ....... YES
  Maximum Trials ........... 8
  Number of Threads ........ 1
  Head Tolerance ........... 0.005000 ft
  
  
  **************************        Volume        Volume
  Flow Routing Continuity        acre-feet      10^6 gal
  **************************     ---------     ---------
  Dry Weather Inflow .......         0.000         0.000
  Wet Weather Inflow .......         0.000         0.000
  Groundwater Inflow .......         0.000         0.000
  RDII Inflow ..............         0.000         0.000
  External Inflow ..........         5.142         1.676
  External Outflow .........         5.138         1.674
  Flooding Loss ............         0.000         0.000
  Evaporation Loss .........         0.000         0.000
  Exfiltration Loss ........         0.000         0.000
  Initial Stored Volume ....         0.000         0.000
  Final Stored Volume ......         0.419         0.137
  Continuity Error (%) .....        -8.055
  
  
  *************************
  Highest Continuity Errors
  *************************
  Node 2357570 (95.42%)
  Node 228504 (46.63%)
  Node 2265757 (26.88%)
  Node 233663 (12.72%)
  Node 2265753 (7.48%)
  
  
  ***************************
  Time-Step Critical Elements
  ***************************
  Link 329926 (73.42%)
  Link 412376 (22.65%)
  Link 181744 (2.94%)
  
  
  ********************************
  Highest Flow Instability Indexes
  ********************************
  Link 2265756 (58)
  Link T03_PM_749270 (45)
  Link T03_PM_514120 (45)
  Link T03_PM_514119 (41)
  Link 2265758 (39)
  
  
  *********************************
  Most Frequent Nonconverging Nodes
  *********************************
  Node T03_OF_N0011 (83.82%)
  Node T03_PJ_104 (44.41%)
  Node T03_PJ_035 (43.36%)
  Node T03_PJ_041 (39.77%)
  Node T03_PJ_047 (36.80%)
  
  
  *************************
  Routing Time Step Summary
  *************************
  Minimum Time Step           :     0.16 sec
  Average Time Step           :     3.02 sec
  Maximum Time Step           :    30.00 sec
  % of Time in Steady State   :     0.00
  Average Iterations per Step :     7.40
  % of Steps Not Converging   :    83.82
  Time Step Frequencies       :
     30.000 - 13.228 sec      :     0.00 %
     13.228 -  5.833 sec      :     0.48 %
      5.833 -  2.572 sec      :    89.04 %
      2.572 -  1.134 sec      :    10.48 %
      1.134 -  0.500 sec      :     0.00 %
  
  
  ******************
  Node Depth Summary
  ******************
  
  ---------------------------------------------------------------------------------
                                 Average  Maximum  Maximum  Time of Max    Reported
                                   Depth    Depth      HGL   Occurrence   Max Depth
  Node                 Type         Feet     Feet     Feet  days hr:min        Feet
  ---------------------------------------------------------------------------------
  226435               JUNCTION     0.01     0.01  1061.34     0  06:01        0.01
  226448               JUNCTION     0.06     0.07  1059.03     0  06:12        0.07
  226451               JUNCTION     0.03     0.03  1059.12     0  06:02        0.03
  226577               JUNCTION     0.02     0.02  1058.77     0  06:08        0.02
  226610               JUNCTION     0.01     0.01  1063.03     0  06:00        0.01
  226634               JUNCTION     0.02     0.03  1043.77     0  06:07        0.03
  226704               JUNCTION     0.02     0.02  1045.40     0  06:02        0.02
  226714               JUNCTION     0.02     0.02  1054.43     0  06:02        0.02
  226732               JUNCTION     0.04     0.04  1051.22     0  06:05        0.04
  226749               JUNCTION     0.03     0.04  1037.04     0  06:05        0.04
  226756               JUNCTION     0.01     0.01  1061.34     0  06:01        0.01
  226775               JUNCTION     0.04     0.04  1034.92     0  06:07        0.04
  226813               JUNCTION     0.01     0.02  1064.24     0  06:02        0.02
  226843               JUNCTION     0.01     0.01  1044.19     0  06:00        0.01
  226867               JUNCTION     0.01     0.01  1055.34     1  06:00        0.01
  226887               JUNCTION     0.01     0.01  1030.23     0  06:00        0.01
  226889               JUNCTION     0.03     0.03  1038.93     0  06:06        0.03
  226898               JUNCTION     0.01     0.01  1063.34     0  06:01        0.01
  226902               JUNCTION     0.01     0.01  1043.01     1  06:00        0.01
  226903               JUNCTION     0.03     0.03  1023.93     0  06:02        0.03
  226928               JUNCTION     0.02     0.02  1046.30     0  06:03        0.02
  226935               JUNCTION     0.06     0.07  1028.02     0  06:08        0.07
  226937               JUNCTION     0.01     0.01  1028.86     0  06:01        0.01
  226959               JUNCTION     0.01     0.01  1047.53     0  06:01        0.01
  226985               JUNCTION     0.03     0.03  1018.93     0  06:02        0.03
  227033               JUNCTION     0.01     0.01  1026.41     1  06:00        0.01
  227036               JUNCTION     0.02     0.02  1043.03     0  06:03        0.02
  227037               JUNCTION     0.05     0.06  1026.30     0  06:09        0.06
  227052               JUNCTION     0.02     0.02  1037.72     0  06:02        0.02
  227053               JUNCTION     0.01     0.02  1056.36     0  06:02        0.02
  227067               JUNCTION     0.01     0.01  1052.72     0  06:01        0.01
  227068               JUNCTION     0.02     0.02  1035.02     0  06:03        0.02
  227073               JUNCTION     0.05     0.05  1022.22     0  06:06        0.05
  227082               JUNCTION     0.02     0.03  1042.44     0  06:02        0.03
  227109               JUNCTION     0.04     0.04  1011.98     0  06:03        0.04
  227118               JUNCTION     0.07     0.07  1025.90     0  06:09        0.07
  227124               JUNCTION     0.04     0.04  1025.93     0  06:04        0.04
  227130               JUNCTION     0.03     0.03  1033.43     0  06:06        0.03
  227149               JUNCTION     0.05     0.06  1042.07     0  06:12        0.06
  227168               JUNCTION     0.02     0.02  1023.87     0  06:04        0.02
  227179               JUNCTION     0.07     0.08  1024.43     0  06:11        0.08
  227189               JUNCTION     0.02     0.02  1040.34     0  06:03        0.02
  227199               JUNCTION     0.03     0.03  1016.58     0  06:05        0.03
  227214               JUNCTION     0.02     0.02  1021.94     0  06:06        0.02
  227223               JUNCTION     0.02     0.02  1041.81     0  06:04        0.02
  227228               JUNCTION     0.03     0.04  1004.69     0  06:04        0.04
  227230               JUNCTION     0.02     0.02  1039.60     0  06:03        0.02
  227232               JUNCTION     0.02     0.02  1018.06     0  06:06        0.02
  227235               JUNCTION     0.01     0.01  1049.05     0  06:00        0.01
  227236               JUNCTION     0.02     0.02  1024.18     0  06:03        0.02
  227249               JUNCTION     0.02     0.02  1032.50     0  06:05        0.02
  227259               JUNCTION     0.01     0.01  1051.10     0  06:02        0.01
  227264               JUNCTION     0.22     0.23  1023.40     0  06:11        0.23
  227265               JUNCTION     0.01     0.01  1040.35     0  06:00        0.01
  227280               JUNCTION     0.01     0.01  1042.63     0  06:01        0.01
  227281               JUNCTION     0.01     0.02  1031.82     0  06:01        0.02
  227282               JUNCTION     0.03     0.03  1013.71     0  06:04        0.03
  227289               JUNCTION     0.04     0.05  1022.65     0  06:11        0.05
  227305               JUNCTION     0.01     0.01  1033.42     0  06:02        0.01
  227318               JUNCTION     0.01     0.01  1039.32     0  06:00        0.01
  227328               JUNCTION     0.05     0.05  1034.85     0  06:05        0.05
  227329               JUNCTION     0.02     0.02  1024.07     0  06:02        0.02
  227331               JUNCTION     0.01     0.01  1021.39     0  06:00        0.01
  227334               JUNCTION     0.04     0.04   999.05     0  06:05        0.04
  227346               JUNCTION     0.02     0.02  1010.02     0  06:06        0.02
  227362               JUNCTION     0.12     0.13   995.65     0  06:08        0.13
  227381               JUNCTION     0.01     0.01  1020.10     1  06:00        0.01
  227397               JUNCTION     0.03     0.03  1030.92     0  06:03        0.03
  227398               JUNCTION     0.15     0.16  1003.90     0  06:13        0.16
  227401               JUNCTION     0.02     0.02  1016.64     0  06:04        0.02
  227409               JUNCTION     0.01     0.02  1016.25     0  06:02        0.02
  227415               JUNCTION     0.03     0.03  1027.43     0  06:07        0.03
  227423               JUNCTION     0.06     0.07  1015.57     0  06:09        0.07
  227432               JUNCTION     0.02     0.02  1015.37     0  06:02        0.02
  227433               JUNCTION     0.02     0.03  1031.14     0  06:04        0.03
  227441               JUNCTION     0.04     0.05   995.48     0  06:06        0.05
  227452               JUNCTION     0.03     0.03  1013.93     0  06:02        0.03
  227457               JUNCTION     0.01     0.01  1039.73     0  06:01        0.01
  227462               JUNCTION     0.06     0.07  1026.26     0  06:08        0.07
  227464               JUNCTION     0.09     0.10  1015.49     0  06:13        0.10
  227469               JUNCTION     0.06     0.07  1003.74     0  06:13        0.07
  227482               JUNCTION     0.01     0.01  1034.42     0  06:01        0.01
  227492               JUNCTION     0.02     0.02  1029.01     0  06:03        0.02
  227495               JUNCTION     0.03     0.03  1034.07     0  06:07        0.03
  227499               JUNCTION     0.04     0.04  1027.60     0  06:11        0.04
  227500               JUNCTION     0.03     0.03  1031.45     0  06:02        0.03
  227504               JUNCTION     0.04     0.04   996.82     0  06:05        0.04
  227512               JUNCTION     0.01     0.01  1022.56     0  06:00        0.01
  227521               JUNCTION     0.03     0.03  1016.98     0  06:03        0.03
  227531               JUNCTION     0.01     0.02  1008.78     0  06:01        0.02
  227532               JUNCTION     0.01     0.01  1027.33     0  06:01        0.01
  227542               JUNCTION     0.11     0.12  1026.21     0  06:17        0.12
  227553               JUNCTION     0.02     0.03  1012.02     0  06:04        0.03
  227558               JUNCTION     0.03     0.03  1015.32     0  06:11        0.03
  227564               JUNCTION     0.04     0.04  1008.57     0  06:06        0.04
  227579               JUNCTION     0.05     0.05   985.44     0  06:07        0.05
  227623               JUNCTION     0.01     0.01  1022.27     0  06:01        0.01
  227624               JUNCTION     0.04     0.04  1029.80     0  06:08        0.04
  227627               JUNCTION     0.09     0.10  1003.10     0  06:12        0.10
  227632               JUNCTION     0.03     0.03   991.40     0  06:06        0.03
  227636               JUNCTION     0.01     0.01  1064.37     1  06:00        0.01
  227638               JUNCTION     0.02     0.03  1008.26     0  06:03        0.03
  227639               JUNCTION     0.01     0.02  1031.23     0  06:02        0.02
  227649               JUNCTION     0.03     0.03  1025.55     0  06:08        0.03
  227663               JUNCTION     0.06     0.07  1003.26     0  06:11        0.07
  227673               JUNCTION     0.19     0.20   994.07     0  06:17        0.20
  227679               JUNCTION     0.01     0.01  1039.96     0  06:02        0.01
  227688               JUNCTION     0.05     0.06   977.59     0  06:08        0.06
  227689               JUNCTION     0.02     0.02  1014.21     0  06:03        0.02
  227690               JUNCTION     0.01     0.01  1007.51     0  06:00        0.01
  227691               JUNCTION     0.07     0.08  1002.96     0  06:10        0.08
  227696               JUNCTION     0.02     0.02  1007.35     0  06:05        0.02
  227697               JUNCTION     0.01     0.01  1054.01     0  06:01        0.01
  227702               JUNCTION     0.02     0.02  1050.07     0  06:02        0.02
  227703               JUNCTION     0.08     0.09   982.17     0  06:08        0.09
  227712               JUNCTION     0.03     0.03  1020.21     0  06:03        0.03
  227724               JUNCTION     0.04     0.05  1002.66     0  06:11        0.05
  227731               JUNCTION     0.03     0.03  1023.33     0  06:03        0.03
  227737               JUNCTION     0.02     0.02  1010.56     0  06:04        0.02
  227742               JUNCTION     0.01     0.01  1056.01     0  06:00        0.01
  227743               JUNCTION     0.04     0.04  1021.87     0  06:08        0.04
  227749               JUNCTION     0.01     0.01  1028.52     0  06:00        0.01
  227754               JUNCTION     0.07     0.07   993.84     0  06:18        0.07
  227762               JUNCTION     0.02     0.02  1016.52     0  06:02        0.02
  227767               JUNCTION     0.02     0.02  1025.79     0  06:17        0.02
  227807               JUNCTION     0.02     0.02  1016.14     0  06:04        0.02
  227808               JUNCTION     0.02     0.03  1041.86     0  06:02        0.03
  227816               JUNCTION     0.02     0.02  1028.53     0  06:08        0.02
  227820               JUNCTION     0.01     0.01  1036.45     0  06:01        0.01
  227830               JUNCTION     0.06     0.06  1006.14     0  06:05        0.06
  227835               JUNCTION     0.02     0.03  1011.03     0  06:06        0.03
  227845               JUNCTION     0.02     0.02  1011.06     0  06:03        0.02
  227851               JUNCTION     0.07     0.08   971.55     0  06:09        0.08
  227857               JUNCTION     0.01     0.01  1004.58     0  06:00        0.01
  227862               JUNCTION     0.03     0.03  1016.29     0  06:02        0.03
  227875               JUNCTION     0.05     0.06   982.98     0  06:18        0.06
  227886               JUNCTION     0.06     0.07  1040.98     0  06:10        0.07
  227890               JUNCTION     0.01     0.01  1014.47     0  06:02        0.01
  227891               JUNCTION     0.01     0.01  1047.09     0  06:01        0.01
  227914               JUNCTION     0.02     0.02  1033.92     0  06:04        0.02
  227915               JUNCTION     0.03     0.03  1024.82     0  06:04        0.03
  227920               JUNCTION     0.19     0.21   990.93     0  06:20        0.21
  227930               JUNCTION     0.02     0.02  1027.03     0  06:02        0.02
  227937               JUNCTION     0.05     0.06   980.30     0  06:09        0.06
  227938               JUNCTION     0.01     0.01  1066.30     0  06:00        0.01
  227942               JUNCTION     0.07     0.08   977.14     0  06:10        0.08
  227950               JUNCTION     0.07     0.08   969.90     0  06:10        0.08
  227959               JUNCTION     0.02     0.02   994.63     0  06:05        0.02
  227961               JUNCTION     0.02     0.02  1025.93     0  06:02        0.02
  227964               JUNCTION     0.01     0.02   998.62     0  06:01        0.02
  227970               JUNCTION     0.02     0.02   994.02     0  06:04        0.02
  227972               JUNCTION     0.01     0.01   986.97     1  06:00        0.01
  227974               JUNCTION     0.01     0.01  1027.92     0  06:01        0.01
  227980               JUNCTION     0.03     0.03  1005.27     0  06:05        0.03
  227982               JUNCTION     0.01     0.01  1015.05     0  06:01        0.01
  227993               JUNCTION     0.02     0.02  1037.79     0  06:02        0.02
  227996               JUNCTION     0.07     0.08   969.15     0  06:11        0.08
  227999               JUNCTION     0.02     0.02  1031.16     0  06:01        0.02
  228012               JUNCTION     0.06     0.07  1037.94     0  06:11        0.07
  228023               JUNCTION     0.02     0.02   983.60     0  06:01        0.02
  228030               JUNCTION     0.06     0.07  1023.75     0  06:08        0.07
  228040               JUNCTION     0.04     0.04   991.49     0  06:10        0.04
  228041               JUNCTION     0.01     0.01  1056.46     0  06:01        0.01
  228042               JUNCTION     0.02     0.02   985.09     0  06:03        0.02
  228057               JUNCTION     0.02     0.02   978.39     0  06:01        0.02
  228063               JUNCTION     0.18     0.20   976.33     0  06:18        0.20
  228068               JUNCTION     0.02     0.03   985.13     0  06:04        0.03
  228072               JUNCTION     0.02     0.02   986.02     0  06:08        0.02
  228077               JUNCTION     0.07     0.08  1030.36     0  06:06        0.08
  228078               JUNCTION     0.04     0.04  1030.03     0  06:07        0.04
  228079               JUNCTION     0.03     0.03   990.69     0  06:06        0.03
  228082               JUNCTION     0.08     0.08   990.40     0  06:22        0.08
  228089               JUNCTION     0.09     0.10  1023.65     0  06:13        0.10
  228091               JUNCTION     0.07     0.07   966.37     0  06:10        0.07
  228100               JUNCTION     0.08     0.08   967.11     0  06:09        0.08
  228118               JUNCTION     0.02     0.02   986.77     0  06:02        0.02
  228124               JUNCTION     0.02     0.02  1073.06     0  06:01        0.02
  228130               JUNCTION     0.02     0.02  1018.31     0  06:02        0.02
  228143               JUNCTION     0.04     0.04  1037.12     0  06:12        0.04
  228144               JUNCTION     0.03     0.03  1072.54     0  06:04        0.03
  228145               JUNCTION     0.02     0.02  1015.97     0  06:03        0.02
  228147               JUNCTION     0.05     0.05   971.39     0  06:11        0.05
  228148               JUNCTION     0.03     0.04  1030.17     0  06:08        0.04
  228149               JUNCTION     0.01     0.01  1004.33     0  06:01        0.01
  228150               JUNCTION     0.01     0.02   986.28     0  06:00        0.02
  228152               JUNCTION     0.07     0.07   952.67     0  06:13        0.07
  228153               JUNCTION     0.03     0.03   991.67     0  06:03        0.03
  228157               JUNCTION     0.03     0.03   982.72     0  06:06        0.03
  228159               JUNCTION     0.10     0.11   976.11     0  06:20        0.11
  228171               JUNCTION     0.02     0.02   985.31     0  06:01        0.02
  228174               JUNCTION     0.11     0.12   979.25     0  06:19        0.12
  228176               JUNCTION     0.03     0.03  1071.40     0  06:02        0.03
  228178               JUNCTION     0.01     0.01   997.65     0  06:00        0.01
  228188               JUNCTION     0.07     0.08   958.60     0  06:10        0.08
  228199               JUNCTION     0.03     0.03  1070.83     0  06:02        0.03
  228208               JUNCTION     0.03     0.04  1035.65     0  06:14        0.04
  228209               JUNCTION     0.01     0.01   997.70     0  06:02        0.01
  228217               JUNCTION     0.04     0.05  1029.76     0  06:13        0.05
  228219               JUNCTION     0.01     0.01   998.33     0  06:01        0.01
  228224               JUNCTION     0.14     0.15  1023.51     0  06:18        0.15
  228225               JUNCTION     0.02     0.02   980.50     0  06:01        0.02
  228236               JUNCTION     0.01     0.01  1080.01     0  06:00        0.01
  228240               JUNCTION     0.01     0.01  1032.45     0  06:00        0.01
  228245               JUNCTION     0.04     0.05   973.50     0  06:15        0.05
  228246               JUNCTION     0.03     0.03   984.99     0  06:06        0.03
  228247               JUNCTION     0.02     0.02   983.88     0  06:02        0.02
  228249               JUNCTION     0.08     0.09  1070.10     0  06:05        0.09
  228250               JUNCTION     0.06     0.07   984.31     0  06:22        0.07
  228257               JUNCTION     0.01     0.02   988.51     0  06:03        0.02
  228263               JUNCTION     0.04     0.04  1028.14     0  06:09        0.04
  228268               JUNCTION     0.06     0.07   973.89     0  06:20        0.07
  228273               JUNCTION     0.05     0.06  1017.37     0  06:16        0.06
  228275               JUNCTION     0.07     0.07  1029.49     0  06:09        0.07
  228284               JUNCTION     0.02     0.02  1009.00     0  06:00        0.02
  228287               JUNCTION     0.05     0.06   975.07     0  06:20        0.06
  228290               JUNCTION     0.03     0.03  1069.95     0  06:05        0.03
  228292               JUNCTION     0.04     0.04   972.60     0  06:03        0.04
  228295               JUNCTION     0.04     0.04  1029.40     0  06:10        0.04
  228302               JUNCTION     0.07     0.08   951.88     0  06:11        0.08
  228304               JUNCTION     0.04     0.05  1023.24     0  06:19        0.05
  228307               JUNCTION     0.01     0.01  1009.14     0  06:02        0.01
  228309               JUNCTION     0.05     0.05  1029.56     0  06:13        0.05
  228310               JUNCTION     0.02     0.03  1007.50     0  06:03        0.03
  228316               JUNCTION     0.01     0.01  1080.87     0  06:01        0.01
  228321               JUNCTION     0.02     0.02  1006.63     0  06:05        0.02
  228326               JUNCTION     0.04     0.04   962.60     0  06:13        0.04
  228332               JUNCTION     0.01     0.01  1046.60     0  06:01        0.01
  228334               JUNCTION     0.01     0.01  1009.93     1  06:00        0.01
  228335               JUNCTION     0.04     0.04   978.89     0  06:20        0.04
  228336               JUNCTION     0.10     0.11   976.11     1  06:24        0.11
  228338               JUNCTION     0.13     0.14  1027.06     0  06:08        0.14
  228342               JUNCTION     0.06     0.06   967.59     0  06:21        0.06
  228351               JUNCTION     0.04     0.04  1065.59     0  06:05        0.04
  228353               JUNCTION     0.02     0.03   971.27     0  06:03        0.03
  228356               JUNCTION     0.16     0.18   947.29     0  06:12        0.18
  228359               JUNCTION     0.02     0.02  1034.84     0  06:02        0.02
  228360               JUNCTION     0.05     0.06   965.86     0  06:14        0.06
  228363               JUNCTION     0.04     0.05   996.61     0  06:07        0.05
  228367               JUNCTION     0.04     0.05   998.16     0  06:04        0.05
  228380               JUNCTION     0.03     0.03  1037.30     0  06:01        0.03
  228382               JUNCTION     0.02     0.02  1037.81     0  06:01        0.02
  228391               JUNCTION     0.02     0.02   989.04     0  06:04        0.02
  228392               JUNCTION     0.06     0.07   974.76     1  06:24        0.07
  228395               JUNCTION     0.04     0.04  1035.80     0  06:03        0.04
  228405               JUNCTION     0.03     0.04  1036.39     0  06:01        0.04
  228407               JUNCTION     0.03     0.03   963.05     0  06:03        0.03
  228408               JUNCTION     0.02     0.02  1017.09     0  06:09        0.02
  228410               JUNCTION     0.18     0.20   957.53     0  06:21        0.20
  228412               JUNCTION     0.02     0.02  1042.36     0  06:03        0.02
  228415               JUNCTION     0.07     0.07   992.66     0  06:08        0.07
  228416               JUNCTION     0.04     0.04  1026.82     0  06:09        0.04
  228418               JUNCTION     0.03     0.03  1061.44     0  06:05        0.03
  228421               JUNCTION     0.05     0.06   986.68     0  06:18        0.06
  228424               JUNCTION     0.01     0.02  1002.42     0  06:01        0.02
  228425               JUNCTION     0.03     0.03  1008.64     0  06:18        0.03
  228436               JUNCTION     0.01     0.01  1012.46     0  06:00        0.01
  228444               JUNCTION     0.01     0.01   982.80     0  06:01        0.01
  228448               JUNCTION     0.01     0.01   999.99     0  06:00        0.01
  228451               JUNCTION     0.11     0.12   946.12     0  06:13        0.12
  228464               JUNCTION     0.01     0.01  1050.91     0  06:02        0.01
  228465               JUNCTION     0.03     0.03   980.14     0  06:06        0.03
  228468               JUNCTION     0.01     0.01   994.73     1  06:00        0.01
  228469               JUNCTION     0.02     0.03  1003.13     0  06:02        0.03
  228471               JUNCTION     0.23     0.25   969.58     1  06:28        0.25
  228472               JUNCTION     0.02     0.02  1021.90     0  06:03        0.02
  228474               JUNCTION     0.01     0.01   974.02     0  06:01        0.01
  228484               JUNCTION     0.20     0.22   957.30     0  06:21        0.22
  228488               JUNCTION     0.03     0.03  1001.61     0  06:02        0.03
  228498               JUNCTION     0.04     0.04  1000.95     0  06:03        0.04
  228499               JUNCTION     0.05     0.06  1027.40     0  06:16        0.06
  228504               JUNCTION     1.31     1.69   985.06     1  06:06        1.69
  228507               JUNCTION     0.02     0.02  1001.63     1  06:00        0.02
  228508               JUNCTION     0.02     0.02  1025.84     0  06:02        0.02
  228513               JUNCTION     0.01     0.01  1037.58     0  06:01        0.01
  228515               JUNCTION     0.11     0.12   984.53     0  06:16        0.12
  228518               JUNCTION     0.06     0.07   997.19     0  06:17        0.07
  228519               JUNCTION     0.04     0.05  1019.75     0  06:09        0.05
  228521               JUNCTION     0.01     0.01  1010.60     1  06:00        0.01
  228523               JUNCTION     0.05     0.06  1031.79     0  06:09        0.06
  228525               JUNCTION     0.04     0.04   984.42     0  06:17        0.04
  228527               JUNCTION     0.81     0.83  1053.11     0  06:05        0.83
  228534               JUNCTION     0.01     0.01  1066.23     0  06:01        0.01
  228535               JUNCTION     0.01     0.02  1031.72     0  06:04        0.02
  228544               JUNCTION     0.01     0.01   993.05     0  06:01        0.01
  228549               JUNCTION     0.08     0.08  1018.48     0  06:09        0.08
  228551               JUNCTION     0.08     0.08   969.17     1  06:25        0.08
  228565               JUNCTION     0.05     0.06  1018.36     0  06:09        0.06
  228566               JUNCTION     0.04     0.05   998.81     0  06:11        0.05
  228572               JUNCTION     0.01     0.01  1046.00     0  06:01        0.01
  228580               JUNCTION     0.26     0.28   957.19     0  06:25        0.28
  228585               JUNCTION     0.13     0.15   942.90     0  06:13        0.15
  228591               JUNCTION     0.06     0.07   994.08     1  06:27        0.07
  228604               JUNCTION     0.02     0.03  1026.66     0  06:01        0.03
  228607               JUNCTION     0.01     0.01  1048.16     0  06:00        0.01
  228612               JUNCTION     0.01     0.01  1041.21     0  06:00        0.01
  228615               JUNCTION     0.05     0.05  1026.56     0  06:09        0.05
  228626               JUNCTION     0.03     0.03   998.58     0  06:09        0.03
  228640               JUNCTION     0.02     0.03  1007.36     0  06:04        0.03
  228643               JUNCTION     0.05     0.06  1025.76     0  06:10        0.06
  228647               JUNCTION     0.12     0.13  1046.87     0  06:16        0.13
  228663               JUNCTION     0.01     0.01   987.95     0  06:03        0.01
  228685               JUNCTION     0.01     0.01  1040.78     0  06:00        0.01
  228687               JUNCTION     0.09     0.10   959.30     1  06:26        0.10
  228689               JUNCTION     0.04     0.04   996.85     0  06:15        0.04
  228697               JUNCTION     0.07     0.08  1013.38     0  06:08        0.08
  228698               JUNCTION     0.02     0.02  1017.68     0  06:02        0.02
  228708               JUNCTION     0.06     0.07  1017.77     0  06:03        0.07
  228712               JUNCTION     0.02     0.02  1026.01     0  06:02        0.02
  228742               JUNCTION     0.10     0.11   956.76     0  06:27        0.11
  228748               JUNCTION     0.04     0.04  1018.34     0  06:03        0.04
  228756               JUNCTION     0.05     0.06  1023.96     0  06:13        0.06
  228772               JUNCTION     0.03     0.04   993.73     1  06:19        0.04
  228785               JUNCTION     0.11     0.12   938.38     0  06:14        0.12
  228787               JUNCTION     0.13     0.14   952.15     1  06:26        0.14
  228803               JUNCTION     0.16     0.18  1011.56     0  06:12        0.18
  228805               JUNCTION     0.08     0.09   995.42     0  06:14        0.09
  228808               JUNCTION     0.01     0.01  1021.12     0  06:00        0.01
  228810               JUNCTION     0.01     0.01  1025.97     0  06:02        0.01
  228832               JUNCTION     0.04     0.05  1046.47     0  06:18        0.05
  228834               JUNCTION     0.11     0.12   995.41     0  06:18        0.12
  228851               JUNCTION     0.04     0.04   979.25     1  06:19        0.04
  228874               JUNCTION     0.10     0.12   950.21     1  06:29        0.12
  228879               JUNCTION     0.10     0.11   951.28     0  06:29        0.11
  228884               JUNCTION     0.07     0.08  1011.29     0  06:13        0.08
  228887               JUNCTION     0.00     0.00  1029.60     0  00:00        0.00
  228888               JUNCTION     0.03     0.03   972.03     1  06:18        0.03
  228891               JUNCTION     0.04     0.05  1010.54     0  06:13        0.05
  228899               JUNCTION     0.00     0.00  1028.50     0  00:00        0.00
  228908               JUNCTION     0.01     0.01  1014.20     0  06:02        0.01
  228910               JUNCTION     0.04     0.04  1020.49     0  06:14        0.04
  228925               JUNCTION     0.09     0.09   998.31     0  06:17        0.09
  228928               JUNCTION     0.00     0.00  1028.90     0  00:00        0.00
  228936               JUNCTION     0.00     0.00  1028.00     0  00:00        0.00
  228937               JUNCTION     0.00     0.00  1029.93     0  00:00        0.00
  228940               JUNCTION     0.09     0.10  1001.21     0  06:13        0.10
  228951               JUNCTION     0.00     0.00  1028.50     0  00:00        0.00
  228952               JUNCTION     0.02     0.02  1027.56     0  06:05        0.02
  228963               JUNCTION     0.04     0.05   956.02     0  06:13        0.05
  228980               JUNCTION     0.12     0.13   993.90     0  06:20        0.13
  228997               JUNCTION     0.14     0.15   930.67     0  06:16        0.15
  228998               JUNCTION     0.01     0.02  1004.09     0  06:02        0.02
  229004               JUNCTION     0.03     0.03  1037.86     0  06:19        0.03
  229008               JUNCTION     0.02     0.02  1022.02     0  06:01        0.02
  229011               JUNCTION     0.13     0.14   999.15     0  06:17        0.14
  229024               JUNCTION     0.09     0.10   993.43     0  06:20        0.10
  229029               JUNCTION     0.08     0.08   944.63     0  06:31        0.08
  229038               JUNCTION     0.02     0.02   992.66     0  06:03        0.02
  229042               JUNCTION     0.09     0.10   999.92     0  06:15        0.10
  229049               JUNCTION     0.29     0.39   944.29     1  06:40        0.39
  229055               JUNCTION     0.02     0.02  1026.11     0  06:05        0.02
  229069               JUNCTION     0.06     0.07  1005.55     0  06:12        0.07
  229083               JUNCTION     0.04     0.04  1006.91     0  06:05        0.04
  229093               JUNCTION     0.09     0.09   991.42     0  06:21        0.09
  229098               JUNCTION     0.34     0.63   962.96     1  06:38        0.62
  229101               JUNCTION     0.01     0.01  1037.53     0  06:01        0.01
  229108               JUNCTION     0.02     0.02   992.48     0  06:01        0.02
  229111               JUNCTION     0.04     0.04  1007.87     0  06:06        0.04
  229152               JUNCTION     0.02     0.02   990.36     0  06:04        0.02
  229153               JUNCTION     0.15     0.23   941.67     1  06:41        0.23
  229156               JUNCTION     0.05     0.05   985.05     0  06:21        0.05
  229157               JUNCTION     0.02     0.02  1026.82     0  06:02        0.02
  229162               JUNCTION     0.04     0.05  1009.07     0  06:07        0.05
  229174               JUNCTION     0.02     0.02  1023.63     0  06:02        0.02
  229177               JUNCTION     0.03     0.04  1009.37     0  06:19        0.04
  229179               JUNCTION     0.02     0.02   990.13     0  06:02        0.02
  229181               JUNCTION     0.12     0.29   971.37     1  06:36        0.29
  229183               JUNCTION     0.12     0.27   970.10     1  06:37        0.26
  229202               JUNCTION     0.02     0.03  1021.62     0  06:03        0.03
  229203               JUNCTION     0.18     0.19   927.71     0  06:22        0.19
  229212               JUNCTION     0.03     0.04  1010.29     0  06:05        0.04
  229215               JUNCTION     0.03     0.04  1017.71     0  06:07        0.04
  229216               JUNCTION     0.02     0.02   964.07     0  06:05        0.02
  229226               JUNCTION     0.02     0.03  1015.98     0  06:06        0.03
  229238               JUNCTION     0.03     0.04   996.14     0  06:18        0.04
  229258               JUNCTION     0.05     0.05  1001.33     0  06:13        0.05
  229261               JUNCTION     0.03     0.04   986.80     0  06:03        0.04
  229280               JUNCTION     0.08     0.30   978.52     1  06:35        0.30
  229304               JUNCTION     0.01     0.01   994.35     0  05:36        0.01
  229315               JUNCTION     0.07     0.08   986.29     0  06:13        0.08
  229320               JUNCTION     0.04     0.04   985.92     0  06:03        0.04
  229323               JUNCTION     0.04     0.05   997.73     0  06:04        0.05
  229336               JUNCTION     0.07     0.08   985.27     0  06:12        0.08
  229338               JUNCTION     0.17     0.26   935.48     1  06:42        0.26
  229340               JUNCTION     0.17     0.19   984.30     0  06:14        0.19
  229349               JUNCTION     0.02     0.02   987.34     0  06:01        0.02
  229369               JUNCTION     0.01     0.01   949.37     0  06:01        0.01
  229375               JUNCTION     0.18     0.20   925.52     0  06:23        0.20
  229377               JUNCTION     0.02     0.02  1000.16     0  06:01        0.02
  229400               JUNCTION     0.08     0.40   985.94     1  06:34        0.40
  229406               JUNCTION     0.07     0.08   979.48     0  06:13        0.08
  229414               JUNCTION     0.06     0.07   983.99     0  06:15        0.07
  229427               JUNCTION     0.02     0.02   960.63     0  06:01        0.02
  229428               JUNCTION     0.01     0.02  1007.52     0  06:01        0.02
  229430               JUNCTION     0.03     0.04   991.35     1  06:12        0.04
  229437               JUNCTION     0.10     0.11   984.68     0  06:10        0.11
  229445               JUNCTION     0.02     0.02   950.95     0  06:05        0.02
  229455               JUNCTION     0.03     0.04   949.60     0  06:02        0.04
  229465               JUNCTION     0.17     0.25   932.94     1  06:44        0.25
  229467               JUNCTION     0.06     0.07   971.36     0  06:15        0.07
  229469               JUNCTION     0.01     0.02  1002.52     0  06:01        0.02
  229475               JUNCTION     0.01     0.01  1001.88     0  06:00        0.01
  229477               JUNCTION     0.01     0.01  1004.83     0  06:00        0.01
  229481               JUNCTION     0.12     0.14   983.24     1  06:16        0.14
  229489               JUNCTION     0.16     0.17   981.34     0  06:19        0.17
  229507               JUNCTION     0.05     0.38  1005.40     1  06:33        0.38
  229511               JUNCTION     0.02     0.02   999.87     0  06:01        0.02
  229517               JUNCTION     0.06     0.31  1003.13     1  06:33        0.31
  229527               JUNCTION     0.04     0.05   983.05     1  06:17        0.05
  229530               JUNCTION     0.08     0.08   959.37     0  06:17        0.08
  229549               JUNCTION     0.03     0.03   993.27     0  06:02        0.03
  229558               JUNCTION     0.04     0.05   989.23     0  06:05        0.05
  229570               JUNCTION     0.05     0.47  1012.56     1  06:33        0.46
  229576               JUNCTION     0.07     0.07   953.00     0  06:17        0.07
  229582               JUNCTION     0.04     0.04   991.89     0  06:04        0.04
  229584               JUNCTION     0.17     0.19   923.75     0  06:25        0.19
  229593               JUNCTION     0.07     0.08   976.96     1  06:10        0.08
  229608               JUNCTION     0.10     0.10   947.60     0  06:15        0.10
  229621               JUNCTION     0.04     0.04   949.06     0  06:05        0.04
  229622               JUNCTION     0.16     0.16   950.83     0  06:06        0.16
  229628               JUNCTION     0.18     0.26   926.63     1  06:44        0.26
  229638               JUNCTION     0.01     0.01   955.13     0  06:01        0.01
  229646               JUNCTION     0.01     0.02   950.31     0  06:00        0.02
  229648               JUNCTION     0.01     0.02  1003.15     0  06:01        0.02
  229654               JUNCTION     0.21     0.23   922.81     0  06:24        0.23
  229655               JUNCTION     0.02     0.03  1003.38     0  06:04        0.03
  229659               JUNCTION     0.01     0.01  1024.50     0  06:01        0.01
  229660               JUNCTION     0.06     0.07   934.15     0  06:15        0.07
  229668               JUNCTION     0.11     0.12   980.96     0  06:24        0.12
  229676               JUNCTION     0.02     0.02   962.02     0  06:03        0.02
  229697               JUNCTION     0.02     0.02   956.84     0  06:02        0.02
  229706               JUNCTION     0.03     0.03  1014.34     0  06:05        0.03
  229710               JUNCTION     0.02     0.02   948.16     0  06:02        0.02
  229770               JUNCTION     0.02     0.02   952.19     0  06:02        0.02
  229772               JUNCTION     0.06     0.06   969.04     1  06:11        0.06
  229778               JUNCTION     0.02     0.02   946.05     0  06:01        0.02
  229783               JUNCTION     0.02     0.02   936.13     0  06:02        0.02
  229822               JUNCTION     0.01     0.01  1019.49     0  06:01        0.01
  229844               JUNCTION     0.05     0.06   979.73     0  06:25        0.06
  229848               JUNCTION     0.02     0.02  1016.05     0  06:02        0.02
  229849               JUNCTION     0.03     0.03  1017.27     0  06:02        0.03
  229851               JUNCTION     0.03     0.03  1016.78     0  06:03        0.03
  229861               JUNCTION     0.02     0.02   957.35     0  06:02        0.02
  229871               JUNCTION     0.02     0.02  1012.26     0  06:02        0.02
  229877               JUNCTION     0.18     0.26   923.03     1  06:46        0.26
  229883               JUNCTION     0.06     0.07  1017.40     0  06:04        0.07
  229885               JUNCTION     0.18     0.20   920.61     0  06:25        0.20
  229901               JUNCTION     0.02     0.02  1019.35     0  06:01        0.02
  229921               JUNCTION     0.02     0.02   956.13     0  06:01        0.02
  229940               JUNCTION     0.04     0.05   972.38     0  06:25        0.05
  229961               JUNCTION     0.19     0.27   919.35     1  06:47        0.27
  229972               JUNCTION     0.01     0.01  1022.85     0  06:01        0.01
  229975               JUNCTION     0.01     0.01  1015.95     0  06:00        0.01
  229981               JUNCTION     0.02     0.03   954.42     0  06:02        0.03
  229985               JUNCTION     0.22     0.24   915.64     0  06:26        0.24
  229995               JUNCTION     0.01     0.01  1007.23     0  06:00        0.01
  230012               JUNCTION     0.04     0.04  1000.18     0  06:02        0.04
  230025               JUNCTION     0.03     0.03   953.13     0  06:01        0.03
  230030               JUNCTION     0.15     0.16   957.83     0  06:26        0.16
  230044               JUNCTION     0.10     0.11   952.61     0  06:06        0.11
  230049               JUNCTION     0.08     0.09   961.42     1  06:13        0.09
  230053               JUNCTION     0.02     0.02   954.32     0  06:01        0.02
  230099               JUNCTION     0.04     0.04   947.10     0  06:04        0.04
  230104               JUNCTION     0.03     0.03   947.11     0  06:01        0.03
  230125               JUNCTION     0.07     0.08   957.63     1  06:20        0.08
  230160               JUNCTION     0.36     0.47   917.36     1  06:49        0.47
  230167               JUNCTION     0.03     0.04   952.30     0  06:18        0.04
  230186               JUNCTION     0.12     0.13   947.04     0  06:25        0.13
  230226               JUNCTION     0.01     0.01  1029.34     0  06:02        0.01
  230255               JUNCTION     0.05     0.05   954.69     0  06:34        0.05
  230260               JUNCTION     0.16     0.21   916.95     1  06:50        0.21
  230263               JUNCTION     0.26     0.29   914.28     1  06:32        0.29
  230273               JUNCTION     0.03     0.04   998.10     0  06:08        0.04
  230286               JUNCTION     0.06     0.07   939.27     1  06:21        0.07
  230319               JUNCTION     0.05     0.05   993.26     0  06:03        0.05
  230323               JUNCTION     0.02     0.02   994.83     0  06:01        0.02
  230327               JUNCTION     0.01     0.01  1015.37     1  06:00        0.01
  230342               JUNCTION     0.01     0.01  1000.94     0  06:00        0.01
  230395               JUNCTION     0.20     0.26   913.44     1  06:51        0.26
  230418               JUNCTION     0.06     0.07   993.10     0  06:06        0.07
  230423               JUNCTION     0.03     0.03   993.36     0  06:09        0.03
  230431               JUNCTION     0.02     0.03   993.04     0  06:05        0.03
  230472               JUNCTION     0.12     0.13   955.12     0  06:30        0.13
  230507               JUNCTION     0.22     0.29   912.83     1  06:53        0.29
  230513               JUNCTION     0.23     0.25   913.39     1  06:43        0.25
  230550               JUNCTION     0.02     0.02  1019.66     0  06:02        0.02
  230608               JUNCTION     0.25     0.30   912.23     1  06:54        0.30
  230609               JUNCTION     0.02     0.02   979.02     0  06:06        0.02
  230610               JUNCTION     0.02     0.02  1016.48     0  06:04        0.02
  230616               JUNCTION     0.08     0.09   955.31     0  06:20        0.09
  230637               JUNCTION     0.16     0.17   946.47     0  06:36        0.17
  230657               JUNCTION     0.02     0.02  1011.75     0  06:04        0.02
  230659               JUNCTION     0.03     0.03   979.37     0  06:10        0.03
  230685               JUNCTION     0.32     0.39   911.48     1  06:56        0.39
  230701               JUNCTION     0.03     0.03  1042.03     0  06:07        0.03
  230728               JUNCTION     0.06     0.07   946.25     0  06:36        0.07
  230734               JUNCTION     0.07     0.07  1040.42     0  06:13        0.07
  230750               JUNCTION     0.02     0.02  1000.24     0  06:03        0.02
  230751               JUNCTION     0.03     0.03  1040.09     0  06:12        0.03
  230763               JUNCTION     0.08     0.09   955.56     0  06:15        0.09
  230770               JUNCTION     0.02     0.02  1038.72     0  06:08        0.02
  230771               JUNCTION     0.03     0.03  1026.35     0  06:06        0.03
  230784               JUNCTION     0.02     0.03   997.24     0  06:03        0.03
  230798               JUNCTION     0.03     0.03  1015.17     0  06:08        0.03
  230809               JUNCTION     0.04     0.04   991.83     0  06:07        0.04
  230834               JUNCTION     0.39     0.46   911.09     1  06:58        0.46
  230838               JUNCTION     0.03     0.03   998.28     0  06:10        0.03
  230860               JUNCTION     0.03     0.03   989.84     0  06:08        0.03
  230875               JUNCTION     0.18     0.19   942.30     0  06:39        0.19
  230885               JUNCTION     0.04     0.04   966.73     0  06:11        0.04
  230889               JUNCTION     0.02     0.03   983.25     0  06:09        0.03
  230908               JUNCTION     0.03     0.03  1043.69     0  06:07        0.03
  230919               JUNCTION     0.02     0.02  1003.37     0  06:07        0.02
  230920               JUNCTION     0.04     0.05   965.10     0  06:10        0.05
  230952               JUNCTION     0.02     0.02   989.10     0  06:00        0.02
  230957               JUNCTION     0.02     0.02   956.41     0  06:04        0.02
  230962               JUNCTION     0.05     0.05   942.05     0  06:39        0.05
  230965               JUNCTION     0.03     0.04   963.50     0  06:09        0.04
  230967               JUNCTION     0.02     0.03   988.66     0  06:03        0.03
  230974               JUNCTION     0.07     0.08   962.93     0  06:11        0.08
  230978               JUNCTION     0.03     0.03  1003.73     0  06:07        0.03
  231008               JUNCTION     0.05     0.06   962.03     0  06:11        0.06
  231018               JUNCTION     0.36     0.42   910.72     1  07:00        0.42
  231036               JUNCTION     0.03     0.04   978.87     0  06:01        0.04
  231052               JUNCTION     0.03     0.03   986.81     0  06:02        0.03
  231054               JUNCTION     0.01     0.02   981.70     0  06:01        0.02
  231057               JUNCTION     0.04     0.04   984.05     0  06:12        0.04
  231075               JUNCTION     0.01     0.02   978.80     0  06:03        0.02
  231082               JUNCTION     0.01     0.02   959.29     0  06:01        0.02
  231111               JUNCTION     0.02     0.02   998.76     0  06:03        0.02
  231119               JUNCTION     0.02     0.03  1000.43     0  06:05        0.03
  231132               JUNCTION     0.03     0.03  1044.77     0  06:07        0.03
  231133               JUNCTION     0.05     0.06   920.81     0  06:39        0.06
  231135               JUNCTION     0.02     0.02   985.80     0  06:01        0.02
  231147               JUNCTION     0.02     0.02   945.24     0  06:02        0.02
  231148               JUNCTION     0.05     0.05   944.71     0  06:11        0.05
  231158               JUNCTION     0.03     0.03   983.38     0  06:03        0.03
  231169               JUNCTION     0.33     0.39   910.08     1  07:02        0.39
  231171               JUNCTION     0.30     0.35   910.24     1  07:01        0.35
  231176               JUNCTION     0.01     0.02   991.02     0  06:01        0.02
  231181               JUNCTION     0.01     0.02  1048.66     0  06:02        0.02
  231206               JUNCTION     0.02     0.02   979.51     0  06:02        0.02
  231226               JUNCTION     0.01     0.01  1042.01     0  06:01        0.01
  231227               JUNCTION     0.38     0.44   909.95     1  07:02        0.44
  231233               JUNCTION     0.07     0.07   956.59     0  06:13        0.07
  231243               JUNCTION     0.05     0.06   955.83     0  06:14        0.06
  231245               JUNCTION     0.01     0.01  1045.31     1  06:00        0.01
  231252               JUNCTION     0.02     0.02   972.81     0  06:01        0.02
  231254               JUNCTION     0.02     0.03  1038.03     0  06:01        0.03
  231257               JUNCTION     0.05     0.05   975.38     0  06:13        0.05
  231264               JUNCTION     0.02     0.02   974.03     0  06:01        0.02
  231275               JUNCTION     0.29     0.34   909.79     1  07:03        0.34
  231278               JUNCTION     0.05     0.05   945.57     0  06:09        0.05
  231281               JUNCTION     0.02     0.02   981.07     0  06:03        0.02
  231289               JUNCTION     0.02     0.03   930.10     0  06:03        0.03
  231290               JUNCTION     0.02     0.02  1045.35     0  06:04        0.02
  231291               JUNCTION     0.02     0.03   954.71     0  06:03        0.03
  231310               JUNCTION     0.02     0.02   960.00     0  06:02        0.02
  231318               JUNCTION     0.06     0.06   943.32     0  06:14        0.06
  231324               JUNCTION     0.01     0.01   964.01     0  06:02        0.01
  231325               JUNCTION     0.03     0.03  1037.53     0  06:03        0.03
  231326               JUNCTION     0.02     0.02   963.27     0  06:02        0.02
  231330               JUNCTION     0.02     0.02  1030.61     0  06:02        0.02
  231337               JUNCTION     0.02     0.02   954.12     0  06:01        0.02
  231346               JUNCTION     0.03     0.04  1036.04     0  06:04        0.04
  231354               JUNCTION     0.31     0.35   909.27     1  07:04        0.35
  231376               JUNCTION     0.13     0.14   969.47     0  06:21        0.14
  231378               JUNCTION     0.03     0.03   954.03     0  06:07        0.03
  231401               JUNCTION     0.03     0.03  1034.53     0  06:05        0.03
  231406               JUNCTION     0.05     0.05   946.66     0  06:06        0.05
  231413               JUNCTION     0.06     0.06   942.86     0  06:14        0.06
  231416               JUNCTION     0.02     0.02  1038.16     0  06:05        0.02
  231420               JUNCTION     0.19     0.22   908.87     1  07:04        0.22
  231422               JUNCTION     0.02     0.02   988.42     0  06:03        0.02
  231429               JUNCTION     0.05     0.05   948.02     0  06:14        0.05
  231435               JUNCTION     0.01     0.02  1031.02     0  06:01        0.02
  231451               JUNCTION     0.05     0.05   969.20     1  06:21        0.05
  231486               JUNCTION     0.05     0.05   942.19     0  06:15        0.05
  231488               JUNCTION     0.09     0.10  1031.10     0  06:10        0.10
  231506               JUNCTION     0.06     0.06   967.49     1  06:22        0.06
  231516               JUNCTION     0.01     0.01   943.34     0  06:00        0.01
  231535               JUNCTION     0.10     0.11   939.06     0  06:26        0.11
  231541               JUNCTION     0.02     0.03  1028.61     0  06:05        0.03
  231544               JUNCTION     0.02     0.02  1023.66     0  06:05        0.02
  231565               JUNCTION     0.15     0.16   929.43     0  06:46        0.16
  231626               JUNCTION     0.02     0.02  1040.82     0  06:01        0.02
  231627               JUNCTION     0.03     0.03  1027.83     0  06:03        0.03
  231641               JUNCTION     0.02     0.02  1015.64     0  06:05        0.02
  231642               JUNCTION     0.07     0.07   964.84     1  06:24        0.07
  231643               JUNCTION     0.10     0.10   939.27     0  06:21        0.10
  231648               JUNCTION     0.07     0.08   938.50     0  06:15        0.08
  231651               JUNCTION     0.03     0.03   952.33     0  06:09        0.03
  231674               JUNCTION     0.04     0.04  1027.15     0  06:02        0.04
  231678               JUNCTION     0.09     0.10   939.39     0  06:18        0.10
  231682               JUNCTION     0.03     0.03  1030.82     0  06:11        0.03
  231684               JUNCTION     0.02     0.02   966.35     0  06:01        0.02
  231697               JUNCTION     0.02     0.02   967.04     0  06:02        0.02
  231699               JUNCTION     0.06     0.06  1026.82     0  06:03        0.06
  231703               JUNCTION     0.05     0.06  1025.22     0  06:05        0.06
  231718               JUNCTION     0.03     0.03   973.38     0  06:02        0.03
  231719               JUNCTION     0.02     0.02  1029.13     0  06:02        0.02
  231734               JUNCTION     0.02     0.02  1028.18     0  06:01        0.02
  231738               JUNCTION     0.07     0.08   937.87     0  06:17        0.08
  231740               JUNCTION     0.05     0.05  1026.40     0  06:03        0.05
  231742               JUNCTION     0.10     0.11   938.82     0  06:31        0.11
  231743               JUNCTION     0.05     0.06  1025.82     0  06:04        0.06
  231750               JUNCTION     0.09     0.09  1024.75     0  06:06        0.09
  231754               JUNCTION     0.02     0.03  1004.37     0  06:06        0.03
  231756               JUNCTION     0.09     0.10  1024.66     0  06:09        0.10
  231757               JUNCTION     0.02     0.02   958.22     0  06:01        0.02
  231771               JUNCTION     0.05     0.06   963.46     1  06:24        0.06
  231783               JUNCTION     0.06     0.07   962.77     1  06:25        0.07
  231806               JUNCTION     0.01     0.02   970.02     0  06:01        0.02
  231811               JUNCTION     0.01     0.01  1038.21     0  06:02        0.01
  231813               JUNCTION     0.13     0.14  1024.64     0  06:11        0.14
  231824               JUNCTION     0.02     0.02   948.12     0  06:02        0.02
  231828               JUNCTION     0.04     0.04   950.34     0  06:12        0.04
  231850               JUNCTION     0.04     0.04  1024.42     0  06:12        0.04
  231872               JUNCTION     0.28     0.32   931.54     1  06:36        0.32
  231883               JUNCTION     0.08     0.08   936.39     0  06:18        0.08
  231890               JUNCTION     0.06     0.07   959.77     1  06:26        0.07
  231893               JUNCTION     0.02     0.02  1005.66     0  06:00        0.02
  231895               JUNCTION     0.27     0.31   930.15     1  06:37        0.31
  231900               JUNCTION     0.02     0.02  1007.26     0  06:01        0.02
  231917               JUNCTION     0.06     0.07   993.16     0  06:37        0.07
  231919               JUNCTION     0.13     0.15   938.62     0  06:35        0.15
  231925               JUNCTION     0.02     0.02  1003.66     0  06:01        0.02
  231927               JUNCTION     0.03     0.03   985.39     0  06:03        0.03
  231951               JUNCTION     0.30     0.33   932.85     1  06:35        0.33
  231961               JUNCTION     0.02     0.02   935.72     0  06:02        0.02
  231965               JUNCTION     0.07     0.08   935.65     0  06:18        0.08
  231993               JUNCTION     0.02     0.02  1001.02     0  06:01        0.02
  231998               JUNCTION     0.12     0.13  1010.09     0  06:16        0.13
  232007               JUNCTION     0.29     0.33   935.36     1  06:33        0.33
  232012               JUNCTION     0.12     0.13  1009.77     0  06:22        0.13
  232013               JUNCTION     0.27     0.31   928.36     1  06:39        0.31
  232014               JUNCTION     0.24     0.27   933.57     1  06:34        0.27
  232022               JUNCTION     0.13     0.14  1009.50     0  06:27        0.14
  232030               JUNCTION     0.02     0.02   975.02     0  06:02        0.02
  232031               JUNCTION     0.28     0.33   941.57     1  06:27        0.33
  232033               JUNCTION     0.02     0.02   979.74     0  06:03        0.02
  232038               JUNCTION     0.03     0.03   988.33     0  06:03        0.03
  232039               JUNCTION     0.13     0.15  1009.31     0  06:30        0.15
  232050               JUNCTION     0.02     0.02   948.52     0  06:09        0.02
  232057               JUNCTION     0.21     0.25   938.38     1  06:32        0.25
  232075               JUNCTION     0.14     0.15  1009.08     0  06:34        0.15
  232085               JUNCTION     0.44     0.51   938.89     1  06:30        0.51
  232086               JUNCTION     0.06     0.07  1036.18     0  06:12        0.07
  232091               JUNCTION     0.20     0.22  1008.93     0  06:41        0.22
  232096               JUNCTION     0.06     0.06   938.35     0  06:37        0.06
  232099               JUNCTION     0.31     0.36   940.93     1  06:27        0.36
  232102               JUNCTION     0.02     0.02  1035.99     0  06:08        0.02
  232106               JUNCTION     0.05     0.06  1008.47     0  06:42        0.06
  232110               JUNCTION     0.06     0.06   981.39     0  06:38        0.06
  232114               JUNCTION     0.04     0.04  1036.27     0  06:08        0.04
  232123               JUNCTION     0.29     0.32   927.02     1  06:40        0.32
  232125               JUNCTION     0.23     0.27   939.43     1  06:29        0.27
  232128               JUNCTION     0.11     0.12   935.25     0  06:12        0.12
  232139               JUNCTION     0.09     0.10   981.87     0  06:12        0.10
  232140               JUNCTION     0.02     0.02  1018.50     0  06:07        0.02
  232165               JUNCTION     0.01     0.02   967.01     0  06:02        0.02
  232167               JUNCTION     0.02     0.02   941.66     0  06:01        0.02
  232172               JUNCTION     0.27     0.32   940.25     1  06:28        0.32
  232175               JUNCTION     0.02     0.02   939.73     0  06:03        0.02
  232180               JUNCTION     0.03     0.03   939.63     0  06:02        0.03
  232186               JUNCTION     0.06     0.06   981.39     0  06:17        0.06
  232201               JUNCTION     0.03     0.03   994.54     0  06:07        0.03
  232214               JUNCTION     0.01     0.01  1007.55     0  06:03        0.01
  232215               JUNCTION     0.22     0.23   935.48     0  06:12        0.23
  232217               JUNCTION     0.02     0.02   944.51     0  06:01        0.02
  232220               JUNCTION     0.04     0.04   940.27     0  06:03        0.04
  232230               JUNCTION     0.08     0.08   928.46     0  06:06        0.08
  232231               JUNCTION     0.11     0.12   981.67     0  06:16        0.12
  232234               JUNCTION     0.04     0.05   941.05     0  06:03        0.05
  232236               JUNCTION     0.32     0.36   925.91     1  06:41        0.36
  232243               JUNCTION     0.01     0.01  1028.54     0  06:01        0.01
  232246               JUNCTION     0.02     0.02   957.52     0  06:01        0.02
  232252               JUNCTION     0.04     0.04   937.92     0  06:04        0.04
  232258               JUNCTION     0.03     0.04   989.37     0  06:07        0.04
  232264               JUNCTION     0.04     0.04   931.94     0  06:05        0.04
  232281               JUNCTION     0.01     0.01   973.34     0  06:00        0.01
  232285               JUNCTION     0.10     0.11   963.71     0  06:39        0.11
  232288               JUNCTION     0.01     0.01   954.66     1  06:00        0.01
  232289               JUNCTION     0.04     0.04   942.98     0  06:05        0.04
  232299               JUNCTION     0.02     0.02   964.35     0  06:01        0.02
  232306               JUNCTION     0.26     0.32   942.98     1  06:25        0.31
  232308               JUNCTION     0.02     0.02   938.82     0  06:01        0.02
  232316               JUNCTION     0.07     0.08   979.30     0  06:18        0.08
  232334               JUNCTION     0.06     0.07   944.82     0  06:05        0.07
  232341               JUNCTION     0.30     0.34   925.05     1  06:43        0.34
  232343               JUNCTION     0.02     0.02   971.72     0  06:01        0.02
  232354               JUNCTION     0.01     0.01   953.31     0  06:00        0.01
  232356               JUNCTION     0.01     0.01  1025.68     0  06:01        0.01
  232359               JUNCTION     0.09     0.10   978.39     0  06:20        0.10
  232365               JUNCTION     0.01     0.01   980.01     0  06:01        0.01
  232382               JUNCTION     0.01     0.01   957.70     0  06:00        0.01
  232389               JUNCTION     0.01     0.01   945.81     0  06:01        0.01
  232394               JUNCTION     0.07     0.07   977.46     0  06:21        0.07
  232396               JUNCTION     0.06     0.06   952.10     0  06:11        0.06
  232400               JUNCTION     0.01     0.01  1006.61     0  06:00        0.01
  232422               JUNCTION     0.05     0.05   961.38     0  06:39        0.05
  232424               JUNCTION     0.01     0.01  1041.51     0  06:02        0.01
  232425               JUNCTION     0.01     0.01  1010.62     0  06:04        0.01
  232430               JUNCTION     0.01     0.01   965.04     0  06:00        0.01
  232441               JUNCTION     0.01     0.01   990.37     0  06:02        0.01
  232443               JUNCTION     0.07     0.07   976.36     0  06:21        0.07
  232472               JUNCTION     0.01     0.01   958.48     0  06:00        0.01
  232475               JUNCTION     0.01     0.01  1000.06     0  06:01        0.01
  232476               JUNCTION     0.01     0.01  1059.34     0  06:01        0.01
  232493               JUNCTION     0.02     0.03  1001.40     0  06:05        0.03
  232495               JUNCTION     0.10     0.11   953.36     0  06:12        0.11
  232502               JUNCTION     0.01     0.02   968.36     0  06:00        0.02
  232506               JUNCTION     0.29     0.32   923.92     1  06:44        0.32
  232507               JUNCTION     0.02     0.02   967.91     0  06:02        0.02
  232510               JUNCTION     0.06     0.06   975.53     0  06:21        0.06
  232522               JUNCTION     0.05     0.06   950.65     0  06:05        0.06
  232547               JUNCTION     0.08     0.08   956.18     0  06:11        0.08
  232552               JUNCTION     0.01     0.01   997.34     0  06:00        0.01
  232571               JUNCTION     0.01     0.01   981.38     0  06:02        0.01
  232580               JUNCTION     0.06     0.06   966.75     0  06:16        0.06
  232584               JUNCTION     0.01     0.01  1022.39     0  06:00        0.01
  232592               JUNCTION     0.01     0.01   965.28     0  06:01        0.01
  232594               JUNCTION     0.27     0.30   923.01     1  06:45        0.30
  232602               JUNCTION     0.06     0.06   982.48     0  06:03        0.06
  232620               JUNCTION     0.01     0.01   974.94     0  06:01        0.01
  232621               JUNCTION     0.01     0.02   992.87     0  06:01        0.02
  232625               JUNCTION     0.02     0.02  1002.94     0  06:02        0.02
  232629               JUNCTION     0.02     0.02   994.40     0  06:03        0.02
  232635               JUNCTION     0.06     0.06   964.61     0  06:16        0.06
  232651               JUNCTION     0.01     0.01   984.35     0  06:01        0.01
  232664               JUNCTION     0.01     0.01   979.48     0  06:00        0.01
  232667               JUNCTION     0.01     0.01  1042.24     0  06:03        0.01
  232684               JUNCTION     0.07     0.08   960.08     0  06:11        0.08
  232705               JUNCTION     0.04     0.05   961.32     0  06:03        0.05
  232710               JUNCTION     0.03     0.04   977.81     0  06:06        0.04
  232717               JUNCTION     0.07     0.08   959.06     0  06:17        0.08
  232718               JUNCTION     0.27     0.31   921.67     1  06:46        0.31
  232731               JUNCTION     0.01     0.02   969.07     0  06:03        0.02
  232750               JUNCTION     0.02     0.02  1020.38     0  06:03        0.02
  232754               JUNCTION     0.26     0.34   946.60     1  06:50        0.34
  232779               JUNCTION     0.01     0.01   970.17     0  06:01        0.01
  232781               JUNCTION     0.02     0.02  1012.61     0  06:05        0.02
  232791               JUNCTION     0.01     0.01  1023.95     1  06:00        0.01
  232812               JUNCTION     0.01     0.01  1007.52     0  06:01        0.01
  232820               JUNCTION     0.30     0.41   947.08     1  06:49        0.41
  232829               JUNCTION     0.35     0.44   945.95     1  06:21        0.44
  232848               JUNCTION     0.05     0.06   956.32     0  06:16        0.06
  232851               JUNCTION     0.02     0.02  1028.90     0  06:03        0.02
  232856               JUNCTION     0.02     0.02   983.12     0  06:04        0.02
  232868               JUNCTION     0.33     0.43   947.63     1  06:48        0.43
  232870               JUNCTION     0.03     0.04   970.45     0  06:07        0.04
  232882               JUNCTION     0.09     0.09   954.75     0  06:13        0.09
  232900               JUNCTION     0.31     0.34   920.35     1  06:47        0.34
  232902               JUNCTION     0.06     0.07   972.32     0  06:10        0.07
  232904               JUNCTION     0.11     0.12   954.16     0  06:13        0.12
  232910               JUNCTION     0.03     0.03  1012.48     0  06:05        0.03
  232920               JUNCTION     0.10     0.11   953.91     0  06:13        0.11
  232948               JUNCTION     0.03     0.03  1010.33     0  06:04        0.03
  232953               JUNCTION     0.13     0.14   952.45     0  06:13        0.14
  232956               JUNCTION     0.04     0.05   965.83     0  06:10        0.05
  232960               JUNCTION     0.01     0.01  1053.76     0  06:00        0.01
  232961               JUNCTION     0.02     0.03  1013.30     0  06:02        0.03
  232967               JUNCTION     0.02     0.02   994.23     0  06:03        0.02
  232970               JUNCTION     0.15     0.17   949.73     0  06:16        0.17
  232973               JUNCTION     0.01     0.01   998.35     0  06:02        0.01
  232985               JUNCTION     0.25     0.34   948.38     1  06:47        0.34
  232988               JUNCTION     0.02     0.02  1007.89     0  06:03        0.02
  233001               JUNCTION     0.29     0.32   919.68     1  06:48        0.32
  233009               JUNCTION     0.01     0.01  1042.13     0  06:00        0.01
  233018               JUNCTION     0.02     0.02   963.77     0  06:03        0.02
  233038               JUNCTION     0.01     0.01  1066.36     0  06:00        0.01
  233044               JUNCTION     0.01     0.01  1018.91     0  06:01        0.01
  233047               JUNCTION     0.26     0.46   949.00     1  06:46        0.45
  233052               JUNCTION     0.03     0.03   989.31     0  06:02        0.03
  233061               JUNCTION     0.07     0.07   983.07     0  06:10        0.07
  233069               JUNCTION     0.04     0.04   975.37     0  06:12        0.04
  233070               JUNCTION     0.01     0.01   999.19     0  06:00        0.01
  233074               JUNCTION     0.02     0.02   960.46     0  06:02        0.02
  233079               JUNCTION     0.11     0.21   953.01     1  06:45        0.20
  233092               JUNCTION     0.01     0.01  1030.92     0  06:01        0.01
  233100               JUNCTION     0.06     0.07   940.07     0  06:08        0.07
  233116               JUNCTION     0.06     0.06   924.89     0  06:11        0.06
  233126               JUNCTION     0.02     0.02  1015.97     0  06:04        0.02
  233130               JUNCTION     0.01     0.02  1050.08     0  06:01        0.02
  233133               JUNCTION     0.10     0.11   926.41     0  06:11        0.11
  233141               JUNCTION     0.02     0.02   970.64     0  06:02        0.02
  233158               JUNCTION     0.02     0.02   982.46     0  06:01        0.02
  233170               JUNCTION     0.04     0.04   982.49     0  06:11        0.04
  233173               JUNCTION     0.15     0.29   956.96     1  06:45        0.29
  233178               JUNCTION     0.01     0.02  1051.70     1  06:00        0.02
  233186               JUNCTION     0.06     0.07   988.57     0  06:09        0.07
  233191               JUNCTION     0.05     0.06   954.28     0  06:07        0.06
  233195               JUNCTION     0.01     0.02   984.96     0  06:00        0.02
  233199               JUNCTION     0.06     0.07   967.40     0  06:08        0.07
  233208               JUNCTION     0.04     0.04   967.92     0  06:04        0.04
  233213               JUNCTION     0.03     0.03  1028.93     0  06:01        0.03
  233224               JUNCTION     0.01     0.01  1017.63     1  06:00        0.01
  233226               JUNCTION     0.28     0.29   929.44     0  06:09        0.29
  233245               JUNCTION     0.10     0.10   927.60     0  06:10        0.10
  233248               JUNCTION     0.01     0.01   965.37     0  06:01        0.01
  233252               JUNCTION     0.06     0.07  1014.74     0  06:08        0.07
  233254               JUNCTION     0.01     0.01   981.13     0  06:00        0.01
  233258               JUNCTION     0.15     0.29   960.60     1  06:44        0.29
  233262               JUNCTION     0.03     0.03   993.36     0  06:11        0.03
  233265               JUNCTION     0.01     0.01  1026.77     0  06:01        0.01
  233268               JUNCTION     0.03     0.03   983.80     0  06:05        0.03
  233275               JUNCTION     0.02     0.02  1028.82     0  06:02        0.02
  233291               JUNCTION     0.02     0.02  1016.12     0  06:02        0.02
  233293               JUNCTION     0.09     0.09   967.16     1  06:13        0.09
  233298               JUNCTION     0.01     0.02   984.02     0  06:01        0.02
  233301               JUNCTION     0.02     0.02   972.52     0  06:02        0.02
  233302               JUNCTION     0.01     0.01  1012.01     1  06:00        0.01
  233308               JUNCTION     0.03     0.03  1002.44     0  06:12        0.03
  233310               JUNCTION     0.03     0.03   967.04     0  06:11        0.03
  233311               JUNCTION     0.11     0.22   965.59     1  06:44        0.22
  233327               JUNCTION     0.03     0.03   993.98     0  06:05        0.03
  233328               JUNCTION     0.02     0.03  1011.16     0  06:03        0.03
  233330               JUNCTION     0.05     0.06   979.18     0  06:06        0.06
  233344               JUNCTION     0.06     0.06   982.41     0  06:03        0.06
  233345               JUNCTION     0.42     0.43  1008.55     0  06:07        0.43
  233363               JUNCTION     0.02     0.02   976.27     0  06:02        0.02
  233366               JUNCTION     0.04     0.05  1003.97     0  06:15        0.05
  233372               JUNCTION     0.01     0.01  1077.86     0  06:00        0.01
  233373               JUNCTION     0.02     0.02   973.26     1  06:06        0.02
  233375               JUNCTION     0.05     0.06  1004.41     0  06:05        0.06
  233380               JUNCTION     0.01     0.01   992.96     0  06:00        0.01
  233382               JUNCTION     0.03     0.03  1018.71     0  06:03        0.03
  233394               JUNCTION     0.02     0.02  1023.58     0  06:03        0.02
  233398               JUNCTION     0.04     0.04   995.94     0  06:04        0.04
  233399               JUNCTION     0.01     0.01  1076.09     0  06:01        0.01
  233404               JUNCTION     0.07     0.08  1004.27     0  06:12        0.08
  233410               JUNCTION     0.07     0.07   973.37     0  06:07        0.07
  233418               JUNCTION     0.09     0.09  1014.51     0  06:18        0.09
  233422               JUNCTION     0.01     0.01  1009.01     0  06:02        0.01
  233425               JUNCTION     0.02     0.02   974.87     0  06:02        0.02
  233426               JUNCTION     0.01     0.01   996.08     0  06:01        0.01
  233427               JUNCTION     0.02     0.02  1048.49     0  06:02        0.02
  233436               JUNCTION     0.01     0.01   997.61     0  06:01        0.01
  233444               JUNCTION     0.29     0.57   966.28     1  06:43        0.57
  233447               JUNCTION     0.01     0.01  1070.83     0  06:02        0.01
  233456               JUNCTION     0.04     0.04  1071.16     0  06:02        0.04
  233457               JUNCTION     0.01     0.01  1002.10     0  06:00        0.01
  233459               JUNCTION     0.02     0.02  1014.44     0  06:01        0.02
  233470               JUNCTION     0.06     0.06   989.09     0  06:05        0.06
  233474               JUNCTION     0.01     0.01   990.70     0  06:00        0.01
  233480               JUNCTION     0.02     0.02  1029.49     0  06:01        0.02
  233487               JUNCTION     0.02     0.02  1033.20     0  06:02        0.02
  233489               JUNCTION     0.02     0.02  1046.31     0  06:03        0.02
  233494               JUNCTION     0.01     0.01  1030.19     0  06:00        0.01
  233503               JUNCTION     0.04     0.04   979.61     0  06:01        0.04
  233505               JUNCTION     0.01     0.01   981.36     0  06:01        0.01
  233507               JUNCTION     0.01     0.01  1016.44     0  06:00        0.01
  233510               JUNCTION     0.01     0.01  1025.57     0  06:00        0.01
  233511               JUNCTION     0.05     0.06   994.35     0  06:04        0.06
  233522               JUNCTION     0.01     0.02  1039.02     0  06:02        0.02
  233523               JUNCTION     0.02     0.03   978.58     1  06:03        0.03
  233526               JUNCTION     0.05     0.05  1011.87     0  06:16        0.05
  233538               JUNCTION     0.01     0.01  1037.10     0  06:01        0.01
  233540               JUNCTION     0.14     0.32   970.29     1  06:42        0.32
  233546               JUNCTION     0.01     0.01  1037.33     1  06:00        0.01
  233551               JUNCTION     0.03     0.03  1004.93     0  06:02        0.03
  233554               JUNCTION     0.01     0.01  1060.91     0  06:00        0.01
  233558               JUNCTION     0.03     0.04  1042.24     0  06:06        0.04
  233565               JUNCTION     0.01     0.01  1015.01     1  06:00        0.01
  233567               JUNCTION     0.04     0.04  1029.04     0  06:09        0.04
  233570               JUNCTION     0.04     0.04  1014.20     0  06:11        0.04
  233576               JUNCTION     0.02     0.02   986.86     0  06:02        0.02
  233577               JUNCTION     0.10     0.11  1017.07     0  06:18        0.11
  233578               JUNCTION     0.02     0.02  1019.35     0  06:06        0.02
  233579               JUNCTION     0.02     0.02  1043.59     0  06:04        0.02
  233580               JUNCTION     0.03     0.03  1023.86     0  06:06        0.03
  233586               JUNCTION     0.01     0.01  1027.43     1  06:00        0.01
  233592               JUNCTION     0.02     0.03   986.08     1  06:03        0.03
  233594               JUNCTION     0.02     0.02  1039.83     1  06:00        0.02
  233598               JUNCTION     0.02     0.02  1018.92     0  06:01        0.02
  233604               JUNCTION     0.01     0.01  1011.72     0  06:01        0.01
  233607               JUNCTION     0.06     0.06  1000.02     0  06:04        0.06
  233611               JUNCTION     0.02     0.02  1045.76     0  06:01        0.02
  233615               JUNCTION     0.01     0.01  1044.29     0  06:01        0.01
  233619               JUNCTION     0.01     0.01  1045.01     0  06:01        0.01
  233627               JUNCTION     0.01     0.01   986.54     0  06:01        0.01
  233628               JUNCTION     0.03     0.03  1009.47     0  06:04        0.03
  233645               JUNCTION     0.02     0.02   998.14     0  06:01        0.02
  233646               JUNCTION     0.01     0.01  1025.41     0  06:01        0.01
  233649               JUNCTION     0.03     0.03  1039.74     0  06:07        0.03
  233653               JUNCTION     0.02     0.02  1011.57     0  06:01        0.02
  233659               JUNCTION     0.02     0.02  1022.24     0  06:01        0.02
  233661               JUNCTION     0.02     0.03   996.19     1  06:03        0.03
  233663               JUNCTION     2.68     2.86   999.02     1  06:03        2.86
  233664               JUNCTION     0.01     0.01  1042.99     0  06:00        0.01
  233665               JUNCTION     0.02     0.02  1000.90     0  06:01        0.02
  233666               JUNCTION     0.01     0.01  1035.91     0  06:01        0.01
  233671               JUNCTION     0.02     0.02  1020.08     0  06:01        0.02
  233676               JUNCTION     0.01     0.01  1035.00     0  06:01        0.01
  233677               JUNCTION     0.05     0.05  1033.05     0  06:08        0.05
  233679               JUNCTION     0.02     0.02  1048.00     0  06:00        0.02
  233680               JUNCTION     0.04     0.04  1024.66     0  06:05        0.04
  233681               JUNCTION     0.01     0.02  1046.97     0  06:01        0.02
  233683               JUNCTION     0.02     0.02  1043.86     0  06:04        0.02
  233686               JUNCTION     0.01     0.02  1027.14     0  06:00        0.02
  233691               JUNCTION     0.14     0.39   976.92     0  04:53        0.39
  233700               JUNCTION     0.55     0.56  1040.77     0  06:01        0.56
  233706               JUNCTION     0.01     0.01  1029.83     0  06:00        0.01
  233712               JUNCTION     0.09     0.10  1018.15     0  06:19        0.10
  233718               JUNCTION     0.01     0.01  1044.01     0  06:00        0.01
  233719               JUNCTION     0.01     0.02  1036.96     0  06:01        0.02
  233722               JUNCTION     0.01     0.01  1006.99     0  06:01        0.01
  233733               JUNCTION     0.05     0.05  1027.28     0  06:05        0.05
[...]
  493608                  1.00   0.00  0.00  0.00  1.00  0.00  0.00  0.00  1.00  0.00
  493609                  1.00   0.00  0.00  0.00  1.00  0.00  0.00  0.00  0.00  0.00
  493614                  1.00   0.00  0.00  0.00  1.00  0.00  0.00  0.00  1.00  0.00
  518647                  1.00   0.00  0.00  0.00  0.00  1.00  0.00  0.00  0.00  0.00
  518648                  1.00   0.00  0.00  0.00  0.00  1.00  0.00  0.00  1.00  0.00
  536263                  1.00   0.00  0.00  0.00  0.00  1.00  0.00  0.00  0.00  0.00
  536265                  1.00   0.00  0.00  0.00  0.00  1.00  0.00  0.00  0.00  0.00
  536266                  1.00   0.00  0.00  0.00  0.00  1.00  0.00  0.00  1.00  0.00
  538202                  1.00   0.00  0.00  0.00  1.00  0.00  0.00  0.00  0.00  0.00
  538203                  1.00   0.00  0.00  0.00  1.00  0.00  0.00  0.00  1.00  0.00
  538205                  1.00   0.00  0.00  0.00  1.00  0.00  0.00  0.00  1.00  0.00
  538206                  1.00   0.00  0.00  0.00  1.00  0.00  0.00  0.00  1.00  0.00
  540717                  1.00   0.00  0.00  0.00  0.00  1.00  0.00  0.00  1.00  0.00
  540718                  1.00   0.00  0.00  0.00  1.00  0.00  0.00  0.00  1.00  0.00
  540998                  1.00   0.00  0.00  0.00  1.00  0.00  0.00  0.00  0.00  0.00
  540999                  1.00   0.00  0.00  0.00  0.00  1.00  0.00  0.00  1.00  0.00
  548072                  1.00   0.00  0.00  0.00  1.00  0.00  0.00  0.00  1.00  0.00
  562150                  1.00   0.00  0.00  0.00  1.00  0.00  0.00  0.00  1.00  0.00
  562581                  1.00   0.00  0.00  0.00  1.00  0.00  0.00  0.00  1.00  0.00
  562810                  1.00   0.00  0.00  0.00  0.00  0.00  0.00  1.00  0.00  0.00
  562811                  1.00   0.00  0.00  0.00  0.00  1.00  0.00  0.00  1.00  0.00
  562813                  1.00   0.00  0.00  0.00  1.00  0.00  0.00  0.00  1.00  0.00
  566937                  1.00   0.00  0.00  0.00  0.00  1.00  0.00  0.00  1.00  0.00
  566938                  1.00   0.00  0.00  0.00  1.00  0.00  0.00  0.00  0.00  0.00
  567239                  1.00   0.00  0.00  0.00  0.00  0.00  0.00  1.00  0.00  0.00
  567243                  1.00   0.00  0.00  0.00  0.00  0.00  0.00  1.00  0.00  0.00
  567252                  1.00   0.00  0.00  0.00  0.00  0.00  0.00  1.00  0.00  0.00
  567268                  1.00   0.00  0.00  0.00  0.00  0.00  0.00  1.00  0.00  0.00
  567270                  1.00   0.00  0.00  0.00  0.00  0.00  0.00  1.00  0.00  0.00
  567372                  1.00   0.00  0.00  0.00  1.00  0.00  0.00  0.00  1.00  0.00
  567373                  1.00   0.00  0.00  0.00  1.00  0.00  0.00  0.00  0.00  0.00
  567413                  1.00   0.00  0.00  0.00  1.00  0.00  0.00  0.00  0.05  0.00
  567414                  1.00   0.00  0.00  0.00  1.00  0.00  0.00  0.00  0.00  0.00
  567566                  1.00   0.00  0.00  0.00  0.00  1.00  0.00  0.00  0.98  0.00
  567567                  1.00   0.00  0.00  0.00  0.84  0.16  0.00  0.00  0.00  0.00
  598421                  1.00   0.00  0.00  0.00  0.00  1.00  0.00  0.00  1.00  0.00
  598422                  1.00   0.00  0.00  0.00  0.00  0.00  0.00  1.00  0.00  0.00
  602369                  1.00   0.00  0.00  0.00  0.00  1.00  0.00  0.00  1.00  0.00
  602370                  1.00   0.00  0.00  0.00  0.00  1.00  0.00  0.00  0.00  0.00
  640825                  1.00   0.00  0.00  0.00  0.00  0.00  0.00  1.00  0.00  0.00
  640827                  1.00   0.00  0.00  0.00  0.00  0.00  0.00  1.00  0.00  0.00
  700960                  1.00   0.00  0.00  0.00  0.00  0.00  0.00  1.00  0.00  0.00
  718135                  1.00   0.00  0.00  0.00  1.00  0.00  0.00  0.00  1.00  0.00
  718138                  1.00   0.00  0.00  0.00  0.00  0.00  0.00  1.00  0.00  0.00
  718143                  1.00   0.00  0.00  0.00  0.00  0.00  0.00  1.00  0.00  0.00
  718145                  1.00   0.00  0.00  0.00  0.00  0.00  0.00  1.00  0.00  0.00
  718147                  1.00   0.00  0.00  0.00  0.00  0.00  0.00  1.00  0.00  0.00
  718150                  1.00   0.00  0.00  0.00  0.00  0.00  0.00  1.00  0.00  0.00
  718154                  1.00   0.00  0.00  0.00  0.00  0.00  0.00  1.00  0.00  0.00
  718164                  1.00   0.00  0.00  0.00  0.00  0.00  0.00  1.00  0.00  0.00
  720606                  1.00   0.00  0.00  0.00  1.00  0.00  0.00  0.00  1.00  0.00
  720609                  1.00   0.00  0.00  0.00  0.00  0.00  0.00  1.00  0.00  0.00
  720616                  1.00   0.00  0.00  0.00  0.04  0.96  0.00  0.00  1.00  0.00
  720628                  1.00   0.00  0.00  0.00  0.00  0.00  0.00  1.00  0.00  0.00
  720781                  1.00   0.00  0.00  0.00  0.00  0.00  0.00  1.00  0.00  0.00
  723404                  1.00   0.00  0.00  0.00  1.00  0.00  0.00  0.00  1.00  0.00
  735525                  1.00   0.00  0.00  0.00  0.00  0.00  0.00  1.00  0.00  0.00
  735526                  1.00   0.00  0.00  0.00  0.00  0.00  0.00  1.00  0.00  0.00
  735527                  1.00   0.00  0.00  0.00  0.00  0.00  0.00  1.00  0.00  0.00
  735528                  1.00   0.00  0.00  0.00  0.00  0.00  0.00  1.00  0.00  0.00
  735529                  1.00   0.00  0.00  0.00  0.00  0.00  0.00  1.00  0.00  0.00
  735530                  1.00   0.00  0.00  0.00  1.00  0.00  0.00  0.00  1.00  0.00
  735531                  1.00   0.00  0.00  0.00  0.00  0.00  0.00  1.00  0.00  0.00
  735533                  1.00   0.00  0.00  0.00  0.00  0.00  0.00  1.00  0.00  0.00
  735534                  1.00   0.01  0.00  0.00  0.00  0.00  0.00  0.99  0.00  0.00
  735535                  1.00   0.00  0.00  0.00  1.00  0.00  0.00  0.00  1.00  0.00
  735564                  1.00   0.00  0.00  0.00  0.00  0.00  0.00  1.00  0.00  0.00
  735565                  1.00   0.00  0.00  0.00  0.00  1.00  0.00  0.00  1.00  0.00
  735566                  1.00   0.00  0.00  0.00  0.00  0.66  0.00  0.34  0.65  0.00
  735567                  1.00   0.00  0.00  0.00  0.00  0.00  0.00  1.00  0.00  0.00
  735568                  1.00   0.00  0.00  0.00  1.00  0.00  0.00  0.00  1.00  0.00
  864730                  1.00   0.00  0.00  0.00  0.00  0.00  0.00  1.00  0.00  0.00
  864731                  1.00   0.00  0.00  0.00  0.00  0.00  0.00  1.00  0.00  0.00
  864732                  1.00   0.00  0.00  0.00  0.00  0.00  0.00  1.00  0.00  0.00
  864733                  1.00   0.00  0.00  0.00  0.00  0.00  0.00  1.00  0.00  0.00
  1147434                 1.00   0.00  0.00  0.00  0.00  0.00  0.00  1.00  0.00  0.00
  1147437                 1.00   0.00  0.00  0.00  0.00  0.00  0.00  1.00  0.00  0.00
  1147438                 1.00   0.00  0.00  0.00  0.00  0.00  0.00  1.00  0.00  0.00
  1147440                 1.00   0.00  0.00  0.00  0.00  0.00  0.00  1.00  0.00  0.00
  1147441                 1.00   0.00  0.00  0.00  0.00  0.00  0.00  1.00  0.00  0.00
  1147442                 1.00   0.00  0.00  0.00  0.00  0.00  0.00  1.00  0.00  0.00
  1147446                 1.00   0.00  0.00  0.00  0.00  0.00  0.00  1.00  0.00  0.00
  1147447                 1.00   0.00  0.00  0.00  0.00  0.00  0.00  1.00  0.00  0.00
  1147448                 1.00   0.00  0.00  0.00  0.00  0.00  0.00  1.00  0.00  0.00
  1147449                 1.00   0.00  0.00  0.00  0.00  0.00  0.00  1.00  0.00  0.00
  1147451                 1.00   0.00  0.00  0.00  0.00  0.00  0.00  1.00  0.00  0.00
  1147454                 1.00   0.00  0.00  0.00  0.00  0.00  0.00  1.00  0.00  0.00
  1147460                 1.00   0.00  0.00  0.00  0.00  0.00  0.00  1.00  0.00  0.00
  1147461                 1.00   0.00  0.00  0.00  0.00  0.00  0.00  1.00  0.00  0.00
  1147464                 1.00   0.00  0.00  0.00  0.00  0.00  0.00  1.00  0.00  0.00
  1147465                 1.00   0.00  0.00  0.00  0.00  0.00  0.00  1.00  0.00  0.00
  1147468                 1.00   0.00  0.00  0.00  0.00  0.00  0.00  1.00  0.00  0.00
  1147470                 1.00   0.00  0.00  0.00  0.00  0.00  0.00  1.00  0.00  0.00
  1147471                 1.00   0.00  0.00  0.00  0.00  0.00  0.00  1.00  0.00  0.00
  1147473                 1.00   0.00  0.00  0.00  0.00  0.00  0.00  1.00  0.00  0.00
  1147475                 1.00   0.00  0.00  0.00  0.00  0.00  0.00  1.00  0.00  0.00
  1147605                 1.00   0.00  0.00  0.00  0.00  0.00  0.00  1.00  0.00  0.00
  1147608                 1.00   0.00  0.00  0.00  0.00  0.00  0.00  1.00  0.00  0.00
  1147609                 1.00   0.00  0.00  0.00  0.00  0.00  0.00  1.00  0.00  0.00
  1147616                 1.00   0.00  0.00  0.00  0.00  1.00  0.00  0.00  0.00  0.00
  1147618                 1.00   0.00  0.00  0.00  0.00  0.00  0.00  1.00  0.00  0.00
  1162395                 1.00   0.00  0.00  0.00  0.00  1.00  0.00  0.00  1.00  0.00
  1162397                 1.00   0.00  0.00  0.00  0.00  1.00  0.00  0.00  1.00  0.00
  1162398                 1.00   0.00  0.00  0.00  0.00  0.00  0.00  1.00  0.00  0.00
  1162399                 1.00   0.00  0.00  0.00  0.00  0.00  0.00  1.00  0.00  0.00
  1162410                 1.00   0.00  0.00  0.00  0.00  0.00  0.00  1.00  0.00  0.00
  1162429                 1.00   0.00  0.00  0.00  0.00  1.00  0.00  0.00  1.00  0.00
  1162430                 1.00   0.00  0.00  0.00  0.00  1.00  0.00  0.00  0.00  0.00
  1162432                 1.00   0.00  0.00  0.00  0.00  1.00  0.00  0.00  1.00  0.00
  1162433                 1.00   0.00  0.00  0.00  0.00  0.00  0.00  1.00  0.00  0.00
  1162434                 1.00   0.00  0.00  0.00  1.00  0.00  0.00  0.00  1.00  0.00
  1162438                 1.00   0.00  0.00  0.00  1.00  0.00  0.00  0.00  1.00  0.00
  2265625                 1.00   0.00  1.00  0.00  0.00  0.00  0.00  0.00  0.00  0.00
  2265627                 1.00   1.00  0.00  0.00  0.00  0.00  0.00  0.00  0.00  0.00
  2265629                 1.00   1.00  0.00  0.00  0.00  0.00  0.00  0.00  0.00  0.00
  2265631                 1.00   1.00  0.00  0.00  0.00  0.00  0.00  0.00  0.00  0.00
  2265633                 1.00   1.00  0.00  0.00  0.00  0.00  0.00  0.00  0.00  0.00
  2265635                 1.00   1.00  0.00  0.00  0.00  0.00  0.00  0.00  0.00  0.00
  2265637                 1.00   1.00  0.00  0.00  0.00  0.00  0.00  0.00  0.00  0.00
  2265639                 1.00   1.00  0.00  0.00  0.00  0.00  0.00  0.00  0.00  0.00
  2265646                 1.00   1.00  0.00  0.00  0.00  0.00  0.00  0.00  0.00  0.00
  2265648                 1.00   1.00  0.00  0.00  0.00  0.00  0.00  0.00  0.00  0.00
  2265739                 1.00   1.00  0.00  0.00  0.00  0.00  0.00  0.00  0.00  0.00
  2265741                 1.00   1.00  0.00  0.00  0.00  0.00  0.00  0.00  0.00  0.00
  2265743                 1.00   1.00  0.00  0.00  0.00  0.00  0.00  0.00  0.00  0.00
  2265745                 1.00   1.00  0.00  0.00  0.00  0.00  0.00  0.00  0.00  0.00
  2265747                 1.00   0.00  1.00  0.00  0.00  0.00  0.00  0.00  0.00  0.00
  2265749                 1.00   1.00  0.00  0.00  0.00  0.00  0.00  0.00  0.00  0.00
  2265751                 1.00   1.00  0.00  0.00  0.00  0.00  0.00  0.00  0.00  0.00
  2265754                 1.00   0.00  0.00  0.00  0.93  0.07  0.00  0.00  0.93  0.00
  2265755                 1.00   0.00  0.18  0.00  0.00  0.82  0.00  0.00  0.00  0.00
  2265756                 1.00   0.00  0.00  0.00  1.00  0.00  0.00  0.00  0.06  0.00
  2265758                 1.00   0.00  0.07  0.00  0.93  0.00  0.00  0.00  0.00  0.00
  2265760                 1.00   0.00  0.07  0.00  0.93  0.00  0.00  0.00  0.00  0.00
  2304715                 1.00   0.00  1.00  0.00  0.00  0.00  0.00  0.00  0.00  0.00
  2304717                 1.00   1.00  0.00  0.00  0.00  0.00  0.00  0.00  0.00  0.00
  2304719                 1.00   1.00  0.00  0.00  0.00  0.00  0.00  0.00  0.00  0.00
  2327495                 1.00   0.00  1.00  0.00  0.00  0.00  0.00  0.00  0.00  0.00
  2327497                 1.00   1.00  0.00  0.00  0.00  0.00  0.00  0.00  0.00  0.00
  2327499                 1.00   1.00  0.00  0.00  0.00  0.00  0.00  0.00  0.00  0.00
  2327501                 1.00   1.00  0.00  0.00  0.00  0.00  0.00  0.00  0.00  0.00
  2327503                 1.00   1.00  0.00  0.00  0.00  0.00  0.00  0.00  0.00  0.00
  2357567                 1.00   0.00  0.00  0.00  1.00  0.00  0.00  0.00  1.00  0.00
  2357568                 1.00   0.00  0.04  0.00  0.00  0.96  0.00  0.00  0.96  0.00
  2357569                 1.00   0.02  0.00  0.00  0.98  0.00  0.00  0.00  0.00  0.00
  2357569a                1.00   0.00  0.02  0.00  0.98  0.00  0.00  0.00  0.00  0.00
  2357571                 1.00   0.02  0.98  0.00  0.00  0.00  0.00  0.00  0.00  0.00
  2357573                 1.00   1.00  0.00  0.00  0.00  0.00  0.00  0.00  0.00  0.00
  2357575                 1.00   1.00  0.00  0.00  0.00  0.00  0.00  0.00  0.00  0.00
  2357577                 1.00   1.00  0.00  0.00  0.00  0.00  0.00  0.00  0.00  0.00
  2357579                 1.00   1.00  0.00  0.00  0.00  0.00  0.00  0.00  0.00  0.00
  GM_REALDummy29          1.00   0.00  0.00  0.00  1.00  0.00  0.00  0.00  1.00  0.00
  N101877                 1.00   0.00  0.00  0.00  0.00  0.00  0.00  1.00  0.00  0.00
  T03_PM_243025           1.00   0.00  0.00  0.00  0.95  0.05  0.00  0.00  0.08  0.00
  T03_PM_243028           1.00   0.07  0.01  0.00  0.93  0.00  0.00  0.00  0.00  0.00
  T03_PM_243029           1.00   0.06  0.00  0.00  0.93  0.00  0.00  0.00  0.00  0.00
  T03_PM_243041           1.00   0.09  0.00  0.00  0.91  0.00  0.00  0.00  0.00  0.00
  T03_PM_243045           1.00   0.08  0.01  0.00  0.92  0.00  0.00  0.00  0.00  0.00
  T03_PM_243047           1.00   0.10  0.00  0.00  0.90  0.00  0.00  0.00  0.00  0.00
  T03_PM_243267           1.00   0.08  0.00  0.00  0.92  0.00  0.00  0.00  0.55  0.00
  T03_PM_422057           1.00   0.00  0.00  0.00  0.88  0.12  0.00  0.00  0.02  0.00
  T03_PM_510633           1.00   0.10  0.00  0.00  0.90  0.00  0.00  0.00  0.00  0.00
  T03_PM_510647           1.00   0.10  0.01  0.00  0.89  0.00  0.00  0.00  0.00  0.00
  T03_PM_513741           1.00   0.10  0.00  0.00  0.90  0.01  0.00  0.00  0.90  0.00
  T03_PM_513742           1.00   0.09  0.00  0.00  0.90  0.00  0.00  0.00  0.00  0.00
  T03_PM_513744           1.00   0.09  0.00  0.00  0.91  0.00  0.00  0.00  0.91  0.00
  T03_PM_513745           1.00   0.09  0.00  0.00  0.91  0.00  0.00  0.00  0.00  0.00
  T03_PM_513747           1.00   0.09  0.00  0.00  0.91  0.00  0.00  0.00  0.91  0.00
  T03_PM_513748           1.00   0.08  0.00  0.00  0.91  0.00  0.00  0.00  0.00  0.00
  T03_PM_513750           1.00   0.08  0.00  0.00  0.06  0.86  0.00  0.00  0.83  0.00
  T03_PM_513751           1.00   0.07  0.01  0.00  0.78  0.14  0.00  0.00  0.00  0.00
  T03_PM_513753           1.00   0.06  0.00  0.00  0.83  0.11  0.00  0.00  0.80  0.00
  T03_PM_513754           1.00   0.06  0.00  0.00  0.02  0.92  0.00  0.00  0.13  0.00
  T03_PM_514119           1.00   0.04  0.00  0.00  0.95  0.00  0.00  0.00  0.00  0.00
  T03_PM_514120           1.00   0.04  0.00  0.00  0.95  0.00  0.00  0.00  0.01  0.00
  T03_PM_749270           1.00   0.04  0.01  0.00  0.95  0.00  0.00  0.00  0.00  0.00
  T03_PM_749312           1.00   0.05  0.01  0.00  0.86  0.07  0.00  0.00  0.00  0.00
  T12_PM_422056           1.00   0.00  0.00  0.00  1.00  0.00  0.00  0.00  0.03  0.00
  
  
  *************************
  Conduit Surcharge Summary
  *************************
  
  ----------------------------------------------------------------------------
                                                           Hours        Hours 
                         --------- Hours Full --------   Above Full   Capacity
  Conduit                Both Ends  Upstream  Dnstream   Normal Flow   Limited
  ----------------------------------------------------------------------------
  181628                      0.01      0.01     46.25      0.01         0.01
  181646                      0.01      0.01     38.26      0.01         0.01
  187562                      0.01      0.01     45.76      0.01         0.01
  187611                      0.01      0.01     47.12      0.01         0.01
  187855                      0.01      0.01     47.07      0.01         0.01
  412380                      0.01      0.01      0.01     12.01         0.01
  2265754                     0.01      0.01     42.18      0.01         0.01
  2265756                    42.18     42.18     44.77      0.01         0.01
  2265758                    41.57     41.57     44.46      0.01         0.01
  2265760                    41.57     41.57     44.46      0.01         0.01
  2357567                     0.01      0.01     47.14      0.01         0.01
  2357569a                    0.01      0.01     46.62      0.01         0.01
  T03_PM_243025               0.01      0.01     44.25      0.01         0.01
  T03_PM_243028              44.27     44.27     44.55      0.01         0.01
  T03_PM_243029              44.31     44.31     44.55      3.43         4.83
  T03_PM_243041              43.33     43.33     43.51      0.01         0.01
  T03_PM_243045              43.80     43.80     44.03      0.01         0.01
  T03_PM_243047              42.91     42.91     43.22      0.01         0.01
  T03_PM_243267               0.01      0.01     44.03      0.01         0.01
  T03_PM_422057               0.01      0.01     45.87      0.01         0.01
  T03_PM_510633              43.06     43.06     43.22      0.01         0.01
  T03_PM_510647               0.01      0.01     42.91      0.01         0.01
  T03_PM_513741               0.01      0.01     42.91      0.01         0.01
  T03_PM_513742               0.01      0.01     43.33      0.01         0.01
  T03_PM_513744               0.01      0.01     43.51      0.01         0.01
  T03_PM_513745               0.01      0.01     43.71      0.01         0.01
  T03_PM_513747               0.01      0.01     43.72      0.01         0.01
  T03_PM_513748               0.01      0.01     43.80      0.01         0.01
  T03_PM_513751               0.01      0.01     44.27      0.01         0.01
  T03_PM_513753               0.01      0.01     44.31      0.01         0.01
  T03_PM_513754               0.01      1.51      0.01      3.32         0.01
  T03_PM_514119              44.89     44.89     45.89      0.01         0.01
  T03_PM_514120              44.89     44.89     45.54      0.01         0.01
  T03_PM_749270              45.20     45.20     45.54      0.01         0.01
  T03_PM_749312               1.50      1.50     44.89      0.01         0.01
  T12_PM_422056              45.87     45.87     46.54      0.01         0.01
  
  
  ***************
  Pumping Summary
  ***************
  
  ---------------------------------------------------------------------------------------------------------
                                                  Min       Avg       Max     Total     Power    % Time Off
                        Percent   Number of      Flow      Flow      Flow    Volume     Usage    Pump Curve
  Pump                 Utilized   Start-Ups       CFS       CFS       CFS  10^6 gal     Kw-hr    Low   High
  ---------------------------------------------------------------------------------------------------------
  Northfork_Peachtree_Creek.1    11.31         241      0.00     10.98     11.14     1.605    847.71    0.0   77.0
  Northfork_Peachtree_Creek.2     0.00           0      0.00      0.00      0.00     0.000      0.00    0.0    0.0
  North_Woodland.1         4.57          78      0.00      1.70      1.89     0.101     27.41    0.0    0.4
  North_Woodland.2         0.00           0      0.00      0.00      0.00     0.000      0.00    0.0    0.0
  Shore_Lake.1             9.08         155      0.00      1.77      2.23     0.208     88.28    0.0    0.5
  Shore_Lake.2             0.00           0      0.00      0.00      0.00     0.000      0.00    0.0    0.0
  

  Analysis begun on:  Wed Jun 24 06:43:34 2026
  Analysis ended on:  Wed Jun 24 06:44:38 2026
  Total elapsed time: 00:01:04