
  EPA STORM WATER MANAGEMENT MODEL - VERSION 5.2 (Build 5.2.4)
  ------------------------------------------------------------

  13-Mile Run Continuous Simulation Model 
  
  ERROR 110: ground elevation is below water table for Subcatchment SUB511000.
  
  ERROR 110: ground elevation is below water table for Subcatchment SUB530340.

  Analysis begun on:  Wed Jun 24 06:46:15 2026
  Analysis ended on:  Wed Jun 24 06:46:15 2026
  Total elapsed time: < 1 sec