
  EPA STORM WATER MANAGEMENT MODEL - VERSION 5.2 (Build 5.2.4)
  ------------------------------------------------------------

  DNV SWMM 9 Watershed Model. 
  WARNING 04: minimum elevation drop used for Conduit STMMN05200
  WARNING 08: elevation drop exceeds length for Conduit STMMN06277-S
  WARNING 04: minimum elevation drop used for Conduit STMMN09236-S
  WARNING 02: maximum depth increased for Node DUMMH02000
  WARNING 02: maximum depth increased for Node DUMMH02033
  WARNING 02: maximum depth increased for Node DUMMH02034
  WARNING 02: maximum depth increased for Node DUMMH02035
  WARNING 02: maximum depth increased for Node DUMMH02036
  WARNING 02: maximum depth increased for Node DUMMH02038
  WARNING 02: maximum depth increased for Node DUMMH02039
  WARNING 02: maximum depth increased for Node DUMMH02042
  WARNING 02: maximum depth increased for Node DUMMH02065
  WARNING 02: maximum depth increased for Node DUMMH02066
  WARNING 02: maximum depth increased for Node DUMMH02067
  WARNING 02: maximum depth increased for Node DUMMH02070
  WARNING 02: maximum depth increased for Node DUMMH02071
  WARNING 02: maximum depth increased for Node DUMMH02072
  WARNING 02: maximum depth increased for Node DUMMH02073
  WARNING 02: maximum depth increased for Node DUMMH02074
  WARNING 02: maximum depth increased for Node DUMMH02075
  WARNING 02: maximum depth increased for Node DUMMH02081
  WARNING 02: maximum depth increased for Node DUMMH02088
  WARNING 02: maximum depth increased for Node DUMMH02090
  WARNING 02: maximum depth increased for Node DUMMH02091
  WARNING 02: maximum depth increased for Node DUMMH02092
  WARNING 02: maximum depth increased for Node DUMMH02093
  WARNING 02: maximum depth increased for Node DUMMH02094
  WARNING 02: maximum depth increased for Node DUMMH02098
  WARNING 02: maximum depth increased for Node DUMMH02112
  WARNING 02: maximum depth increased for Node DUMMH02115
  WARNING 02: maximum depth increased for Node DUMMH02116
  WARNING 02: maximum depth increased for Node DUMMH02117
  WARNING 02: maximum depth increased for Node DUMMH02118
  WARNING 02: maximum depth increased for Node DUMMH02121
  WARNING 02: maximum depth increased for Node DUMMH02122
  WARNING 02: maximum depth increased for Node DUMMH02129
  WARNING 02: maximum depth increased for Node DUMMH02139
  WARNING 02: maximum depth increased for Node DUMMH02140
  WARNING 02: maximum depth increased for Node DUMMH02141
  WARNING 02: maximum depth increased for Node DUMMH02142
  WARNING 02: maximum depth increased for Node DUMMH02143
  WARNING 02: maximum depth increased for Node DUMMH02145
  WARNING 02: maximum depth increased for Node DUMMH02149
  WARNING 02: maximum depth increased for Node DUMMH02153
  WARNING 02: maximum depth increased for Node DUMMH02169
  WARNING 02: maximum depth increased for Node DUMMH02172
  WARNING 02: maximum depth increased for Node DUMMH02176
  WARNING 02: maximum depth increased for Node DUMMH02182
  WARNING 02: maximum depth increased for Node DUMMH02183
  WARNING 02: maximum depth increased for Node DUMMH02185
  WARNING 02: maximum depth increased for Node DUMMH02189
  WARNING 02: maximum depth increased for Node DUMMH02190
  WARNING 02: maximum depth increased for Node DUMMH02192
  WARNING 02: maximum depth increased for Node DUMMH02193
  WARNING 02: maximum depth increased for Node DUMMH02198
  WARNING 02: maximum depth increased for Node DUMMH02199
  WARNING 02: maximum depth increased for Node DUMMH02200
  WARNING 02: maximum depth increased for Node DUMMH02201
  WARNING 02: maximum depth increased for Node DUMMH02215
  WARNING 02: maximum depth increased for Node DUMMH02216
  WARNING 02: maximum depth increased for Node DUMMH02224
  WARNING 02: maximum depth increased for Node DUMMH02226
  WARNING 02: maximum depth increased for Node DUMMH02228
  WARNING 02: maximum depth increased for Node DUMMH02230
  WARNING 02: maximum depth increased for Node DUMMH02231
  WARNING 02: maximum depth increased for Node DUMMH02426
  WARNING 02: maximum depth increased for Node DUMMH5760
  WARNING 02: maximum depth increased for Node DUMMH5761
  WARNING 02: maximum depth increased for Node DUMMH5762
  WARNING 02: maximum depth increased for Node DUMMH5802
  WARNING 02: maximum depth increased for Node DUMMH5803
  WARNING 02: maximum depth increased for Node DUMMH5817
  WARNING 02: maximum depth increased for Node DUMMH5818
  WARNING 02: maximum depth increased for Node DUMMH5821
  WARNING 02: maximum depth increased for Node DUMMH5822
  WARNING 02: maximum depth increased for Node DUMMH5824
  WARNING 02: maximum depth increased for Node DUMMH5825
  WARNING 02: maximum depth increased for Node DUMMH5829
  WARNING 02: maximum depth increased for Node DUMMH5830
  WARNING 02: maximum depth increased for Node DUMMH5832
  WARNING 02: maximum depth increased for Node DUMMH5992
  WARNING 02: maximum depth increased for Node DUMMH5995
  WARNING 02: maximum depth increased for Node DUMMH5996
  WARNING 02: maximum depth increased for Node DUMMH6034
  WARNING 02: maximum depth increased for Node DUMMH6036
  WARNING 02: maximum depth increased for Node DUMMH6047
  WARNING 02: maximum depth increased for Node DUMMH6049
  WARNING 02: maximum depth increased for Node DUMMH6050
  WARNING 02: maximum depth increased for Node DUMMH6051
  WARNING 02: maximum depth increased for Node DUMMH6052
  WARNING 02: maximum depth increased for Node DUMMH6053
  WARNING 02: maximum depth increased for Node DUMMH6075
  WARNING 02: maximum depth increased for Node DUMMH6160
  WARNING 02: maximum depth increased for Node DUMMH6291
  WARNING 02: maximum depth increased for Node DUMMH6292
  WARNING 02: maximum depth increased for Node DUMMH6364
  WARNING 02: maximum depth increased for Node DUMMH6725
  WARNING 02: maximum depth increased for Node DUMMH6738
  WARNING 02: maximum depth increased for Node DUMMH6744
  WARNING 02: maximum depth increased for Node DUMMH6753
  WARNING 02: maximum depth increased for Node DUMMH6755
  WARNING 02: maximum depth increased for Node DUMMH6771
  WARNING 02: maximum depth increased for Node DUMMH6772
  WARNING 02: maximum depth increased for Node DUMMH6828
  WARNING 02: maximum depth increased for Node DUMMH6848
  WARNING 02: maximum depth increased for Node DUMMH6849
  WARNING 02: maximum depth increased for Node DUMMH6886
  WARNING 02: maximum depth increased for Node DUMMH6890
  WARNING 02: maximum depth increased for Node DUMMH6894
  WARNING 02: maximum depth increased for Node DUMMH6899
  WARNING 02: maximum depth increased for Node DUMMH6901
  WARNING 02: maximum depth increased for Node DUMMH6946
  WARNING 02: maximum depth increased for Node STMMH00047
  WARNING 02: maximum depth increased for Node STMMH00048
  WARNING 02: maximum depth increased for Node STMMH00049
  WARNING 02: maximum depth increased for Node STMMH00066
  WARNING 02: maximum depth increased for Node STMMH00069
  WARNING 02: maximum depth increased for Node STMMH04321
  WARNING 02: maximum depth increased for Node STMMH04322
  WARNING 02: maximum depth increased for Node STMMH04323
  WARNING 02: maximum depth increased for Node STMMH04324
  WARNING 02: maximum depth increased for Node STMMH04325
  WARNING 02: maximum depth increased for Node STMMH04327
  WARNING 02: maximum depth increased for Node STMMH04328
  WARNING 02: maximum depth increased for Node STMMH04329
  WARNING 02: maximum depth increased for Node STMMH04330
  WARNING 02: maximum depth increased for Node STMMH04331
  WARNING 02: maximum depth increased for Node STMMH04332
  WARNING 02: maximum depth increased for Node STMMH04333
  WARNING 02: maximum depth increased for Node STMMH04334
  WARNING 02: maximum depth increased for Node STMMH04335
  WARNING 02: maximum depth increased for Node STMMH04336
  WARNING 02: maximum depth increased for Node STMMH04337
  WARNING 02: maximum depth increased for Node STMMH04338
  WARNING 02: maximum depth increased for Node STMMH04339
  WARNING 02: maximum depth increased for Node STMMH04350
  WARNING 02: maximum depth increased for Node STMMH04351
  WARNING 02: maximum depth increased for Node STMMH04352
  WARNING 02: maximum depth increased for Node STMMH04354
  WARNING 02: maximum depth increased for Node STMMH04355
  WARNING 02: maximum depth increased for Node STMMH04356
  WARNING 02: maximum depth increased for Node STMMH04357
  WARNING 02: maximum depth increased for Node STMMH04358
  WARNING 02: maximum depth increased for Node STMMH04359
  WARNING 02: maximum depth increased for Node STMMH04360
  WARNING 02: maximum depth increased for Node STMMH04361
  WARNING 02: maximum depth increased for Node STMMH04362
  WARNING 02: maximum depth increased for Node STMMH04363
  WARNING 02: maximum depth increased for Node STMMH04364
  WARNING 02: maximum depth increased for Node STMMH04366
  WARNING 02: maximum depth increased for Node STMMH04367
  WARNING 02: maximum depth increased for Node STMMH04368
  WARNING 02: maximum depth increased for Node STMMH04370
  WARNING 02: maximum depth increased for Node STMMH04371
  WARNING 02: maximum depth increased for Node STMMH04373
  WARNING 02: maximum depth increased for Node STMMH04374
  WARNING 02: maximum depth increased for Node STMMH04375
  WARNING 02: maximum depth increased for Node STMMH04376
  WARNING 02: maximum depth increased for Node STMMH04377
  WARNING 02: maximum depth increased for Node STMMH04378
  WARNING 02: maximum depth increased for Node STMMH04380
  WARNING 02: maximum depth increased for Node STMMH04381
  WARNING 02: maximum depth increased for Node STMMH04382
  WARNING 02: maximum depth increased for Node STMMH04383
  WARNING 02: maximum depth increased for Node STMMH04384
  WARNING 02: maximum depth increased for Node STMMH04385
  WARNING 02: maximum depth increased for Node STMMH04386
  WARNING 02: maximum depth increased for Node STMMH04387
  WARNING 02: maximum depth increased for Node STMMH04388
  WARNING 02: maximum depth increased for Node STMMH04389
  WARNING 02: maximum depth increased for Node STMMH04390
  WARNING 02: maximum depth increased for Node STMMH04391
  WARNING 02: maximum depth increased for Node STMMH04392
  WARNING 02: maximum depth increased for Node STMMH04393
  WARNING 02: maximum depth increased for Node STMMH04394
  WARNING 02: maximum depth increased for Node STMMH04395
  WARNING 02: maximum depth increased for Node STMMH04396
  WARNING 02: maximum depth increased for Node STMMH04397
  WARNING 02: maximum depth increased for Node STMMH04398
  WARNING 02: maximum depth increased for Node STMMH04399
  WARNING 02: maximum depth increased for Node STMMH04400
  WARNING 02: maximum depth increased for Node STMMH04402
  WARNING 02: maximum depth increased for Node STMMH04403
  WARNING 02: maximum depth increased for Node STMMH04404
  WARNING 02: maximum depth increased for Node STMMH04418
  WARNING 02: maximum depth increased for Node STMMH04419
  WARNING 02: maximum depth increased for Node STMMH04420
  WARNING 02: maximum depth increased for Node STMMH04421
  WARNING 02: maximum depth increased for Node STMMH04422
  WARNING 02: maximum depth increased for Node STMMH04431
  WARNING 02: maximum depth increased for Node STMMH04432
  WARNING 02: maximum depth increased for Node STMMH04433
  WARNING 02: maximum depth increased for Node STMMH04435
  WARNING 02: maximum depth increased for Node STMMH04436
  WARNING 02: maximum depth increased for Node STMMH04440
  WARNING 02: maximum depth increased for Node STMMH04441
  WARNING 02: maximum depth increased for Node STMMH04442
  WARNING 02: maximum depth increased for Node STMMH04444
  WARNING 02: maximum depth increased for Node STMMH04445
  WARNING 02: maximum depth increased for Node STMMH04446
  WARNING 02: maximum depth increased for Node STMMH04447
  WARNING 02: maximum depth increased for Node STMMH04449
  WARNING 02: maximum depth increased for Node STMMH04450
  WARNING 02: maximum depth increased for Node STMMH04451
  WARNING 02: maximum depth increased for Node STMMH04452
  WARNING 02: maximum depth increased for Node STMMH04454
  WARNING 02: maximum depth increased for Node STMMH04455
  WARNING 02: maximum depth increased for Node STMMH04457
  WARNING 02: maximum depth increased for Node STMMH04459
  WARNING 02: maximum depth increased for Node STMMH04460
  WARNING 02: maximum depth increased for Node STMMH04467
  WARNING 02: maximum depth increased for Node STMMH04468
  WARNING 02: maximum depth increased for Node STMMH04469
  WARNING 02: maximum depth increased for Node STMMH04470
  WARNING 02: maximum depth increased for Node STMMH04473
  WARNING 02: maximum depth increased for Node STMMH04474
  WARNING 02: maximum depth increased for Node STMMH04476
  WARNING 02: maximum depth increased for Node STMMH04477
  WARNING 02: maximum depth increased for Node STMMH04478
  WARNING 02: maximum depth increased for Node STMMH04479
  WARNING 02: maximum depth increased for Node STMMH04480
  WARNING 02: maximum depth increased for Node STMMH04481
  WARNING 02: maximum depth increased for Node STMMH04482
  WARNING 02: maximum depth increased for Node STMMH04483
  WARNING 02: maximum depth increased for Node STMMH04484
  WARNING 02: maximum depth increased for Node STMMH04485
  WARNING 02: maximum depth increased for Node STMMH04486
  WARNING 02: maximum depth increased for Node STMMH04489
  WARNING 02: maximum depth increased for Node STMMH04490
  WARNING 02: maximum depth increased for Node STMMH04491
  WARNING 02: maximum depth increased for Node STMMH04492
  WARNING 02: maximum depth increased for Node STMMH04493
  WARNING 02: maximum depth increased for Node STMMH04494
  WARNING 02: maximum depth increased for Node STMMH04495
  WARNING 02: maximum depth increased for Node STMMH04496
  WARNING 02: maximum depth increased for Node STMMH04497
  WARNING 02: maximum depth increased for Node STMMH04498
  WARNING 02: maximum depth increased for Node STMMH04501
  WARNING 02: maximum depth increased for Node STMMH04502
  WARNING 02: maximum depth increased for Node STMMH04503
  WARNING 02: maximum depth increased for Node STMMH04504
  WARNING 02: maximum depth increased for Node STMMH04505
  WARNING 02: maximum depth increased for Node STMMH04506
  WARNING 02: maximum depth increased for Node STMMH04507
  WARNING 02: maximum depth increased for Node STMMH04508
  WARNING 02: maximum depth increased for Node STMMH04509
  WARNING 02: maximum depth increased for Node STMMH04510
  WARNING 02: maximum depth increased for Node STMMH04511
  WARNING 02: maximum depth increased for Node STMMH04512
  WARNING 02: maximum depth increased for Node STMMH04513
  WARNING 02: maximum depth increased for Node STMMH04518
  WARNING 02: maximum depth increased for Node STMMH04525
  WARNING 02: maximum depth increased for Node STMMH04526
  WARNING 02: maximum depth increased for Node STMMH04528
  WARNING 02: maximum depth increased for Node STMMH04529
  WARNING 02: maximum depth increased for Node STMMH04530
  WARNING 02: maximum depth increased for Node STMMH04531
  WARNING 02: maximum depth increased for Node STMMH04532
  WARNING 02: maximum depth increased for Node STMMH04533
  WARNING 02: maximum depth increased for Node STMMH04534
  WARNING 02: maximum depth increased for Node STMMH04535
  WARNING 02: maximum depth increased for Node STMMH04536
  WARNING 02: maximum depth increased for Node STMMH04539
  WARNING 02: maximum depth increased for Node STMMH04540
  WARNING 02: maximum depth increased for Node STMMH04541
  WARNING 02: maximum depth increased for Node STMMH04542
  WARNING 02: maximum depth increased for Node STMMH04543
  WARNING 02: maximum depth increased for Node STMMH04544
  WARNING 02: maximum depth increased for Node STMMH04545
  WARNING 02: maximum depth increased for Node STMMH04546
  WARNING 02: maximum depth increased for Node STMMH04547
  WARNING 02: maximum depth increased for Node STMMH04548
  WARNING 02: maximum depth increased for Node STMMH04550
  WARNING 02: maximum depth increased for Node STMMH04554
  WARNING 02: maximum depth increased for Node STMMH04555
  WARNING 02: maximum depth increased for Node STMMH04556
  WARNING 02: maximum depth increased for Node STMMH04557
  WARNING 02: maximum depth increased for Node STMMH04558
  WARNING 02: maximum depth increased for Node STMMH04559
  WARNING 02: maximum depth increased for Node STMMH04560
  WARNING 02: maximum depth increased for Node STMMH04562
  WARNING 02: maximum depth increased for Node STMMH04563
  WARNING 02: maximum depth increased for Node STMMH04566
  WARNING 02: maximum depth increased for Node STMMH04567
  WARNING 02: maximum depth increased for Node STMMH04568
  WARNING 02: maximum depth increased for Node STMMH04569
  WARNING 02: maximum depth increased for Node STMMH04572
  WARNING 02: maximum depth increased for Node STMMH04574
  WARNING 02: maximum depth increased for Node STMMH04575
  WARNING 02: maximum depth increased for Node STMMH04576
  WARNING 02: maximum depth increased for Node STMMH04577
  WARNING 02: maximum depth increased for Node STMMH04578
  WARNING 02: maximum depth increased for Node STMMH04580
  WARNING 02: maximum depth increased for Node STMMH04581
  WARNING 02: maximum depth increased for Node STMMH04582
  WARNING 02: maximum depth increased for Node STMMH04584
  WARNING 02: maximum depth increased for Node STMMH04585
  WARNING 02: maximum depth increased for Node STMMH04586
  WARNING 02: maximum depth increased for Node STMMH04587
  WARNING 02: maximum depth increased for Node STMMH04592
  WARNING 02: maximum depth increased for Node STMMH04593
  WARNING 02: maximum depth increased for Node STMMH04594
  WARNING 02: maximum depth increased for Node STMMH04595
  WARNING 02: maximum depth increased for Node STMMH04596
  WARNING 02: maximum depth increased for Node STMMH04597
  WARNING 02: maximum depth increased for Node STMMH04599
  WARNING 02: maximum depth increased for Node STMMH04601
  WARNING 02: maximum depth increased for Node STMMH04602
  WARNING 02: maximum depth increased for Node STMMH04603
  WARNING 02: maximum depth increased for Node STMMH04604
  WARNING 02: maximum depth increased for Node STMMH04605
  WARNING 02: maximum depth increased for Node STMMH04606
  WARNING 02: maximum depth increased for Node STMMH04607
  WARNING 02: maximum depth increased for Node STMMH04612
  WARNING 02: maximum depth increased for Node STMMH04613
  WARNING 02: maximum depth increased for Node STMMH04615
  WARNING 02: maximum depth increased for Node STMMH04616
  WARNING 02: maximum depth increased for Node STMMH04624
  WARNING 02: maximum depth increased for Node STMMH04625
  WARNING 02: maximum depth increased for Node STMMH04626
  WARNING 02: maximum depth increased for Node STMMH04627
  WARNING 02: maximum depth increased for Node STMMH04628
  WARNING 02: maximum depth increased for Node STMMH04629
  WARNING 02: maximum depth increased for Node STMMH04632
  WARNING 02: maximum depth increased for Node STMMH04633
  WARNING 02: maximum depth increased for Node STMMH04634
  WARNING 02: maximum depth increased for Node STMMH04635
  WARNING 02: maximum depth increased for Node STMMH04636
  WARNING 02: maximum depth increased for Node STMMH04638
  WARNING 02: maximum depth increased for Node STMMH04640
  WARNING 02: maximum depth increased for Node STMMH04641
  WARNING 02: maximum depth increased for Node STMMH04642
  WARNING 02: maximum depth increased for Node STMMH04643
  WARNING 02: maximum depth increased for Node STMMH04644
  WARNING 02: maximum depth increased for Node STMMH04645
  WARNING 02: maximum depth increased for Node STMMH04646
  WARNING 02: maximum depth increased for Node STMMH04647
  WARNING 02: maximum depth increased for Node STMMH04649
  WARNING 02: maximum depth increased for Node STMMH04650
  WARNING 02: maximum depth increased for Node STMMH04651
  WARNING 02: maximum depth increased for Node STMMH04652
  WARNING 02: maximum depth increased for Node STMMH04653
  WARNING 02: maximum depth increased for Node STMMH04654
  WARNING 02: maximum depth increased for Node STMMH04658
  WARNING 02: maximum depth increased for Node STMMH04659
  WARNING 02: maximum depth increased for Node STMMH04660
  WARNING 02: maximum depth increased for Node STMMH04661
  WARNING 02: maximum depth increased for Node STMMH04662
  WARNING 02: maximum depth increased for Node STMMH04663
  WARNING 02: maximum depth increased for Node STMMH04664
  WARNING 02: maximum depth increased for Node STMMH04665
  WARNING 02: maximum depth increased for Node STMMH04667
  WARNING 02: maximum depth increased for Node STMMH04670
  WARNING 02: maximum depth increased for Node STMMH04671
  WARNING 02: maximum depth increased for Node STMMH04672
  WARNING 02: maximum depth increased for Node STMMH04673
  WARNING 02: maximum depth increased for Node STMMH04674
  WARNING 02: maximum depth increased for Node STMMH04677
  WARNING 02: maximum depth increased for Node STMMH04678
  WARNING 02: maximum depth increased for Node STMMH04679
  WARNING 02: maximum depth increased for Node STMMH04680
  WARNING 02: maximum depth increased for Node STMMH04681
  WARNING 02: maximum depth increased for Node STMMH04683
  WARNING 02: maximum depth increased for Node STMMH04684
  WARNING 02: maximum depth increased for Node STMMH04685
  WARNING 02: maximum depth increased for Node STMMH04686
  WARNING 02: maximum depth increased for Node STMMH04690
  WARNING 02: maximum depth increased for Node STMMH04691
  WARNING 02: maximum depth increased for Node STMMH04694
  WARNING 02: maximum depth increased for Node STMMH04695
  WARNING 02: maximum depth increased for Node STMMH04697
  WARNING 02: maximum depth increased for Node STMMH04699
  WARNING 02: maximum depth increased for Node STMMH04707
  WARNING 02: maximum depth increased for Node STMMH04709
  WARNING 02: maximum depth increased for Node STMMH04711
  WARNING 02: maximum depth increased for Node STMMH04748
  WARNING 02: maximum depth increased for Node STMMH04749
  WARNING 02: maximum depth increased for Node STMMH04751
  WARNING 02: maximum depth increased for Node STMMH04752
  WARNING 02: maximum depth increased for Node STMMH04753
  WARNING 02: maximum depth increased for Node STMMH04755
  WARNING 02: maximum depth increased for Node STMMH04756
  WARNING 02: maximum depth increased for Node STMMH04766
  WARNING 02: maximum depth increased for Node STMMH04767
  WARNING 02: maximum depth increased for Node STMMH04768
  WARNING 02: maximum depth increased for Node STMMH04770
  WARNING 02: maximum depth increased for Node STMMH04771
  WARNING 02: maximum depth increased for Node STMMH04773
  WARNING 02: maximum depth increased for Node STMMH04774
  WARNING 02: maximum depth increased for Node STMMH04777
  WARNING 02: maximum depth increased for Node STMMH04778
  WARNING 02: maximum depth increased for Node STMMH04779
  WARNING 02: maximum depth increased for Node STMMH04780
  WARNING 02: maximum depth increased for Node STMMH04781
  WARNING 02: maximum depth increased for Node STMMH04782
  WARNING 02: maximum depth increased for Node STMMH04783
  WARNING 02: maximum depth increased for Node STMMH04784
  WARNING 02: maximum depth increased for Node STMMH04785
  WARNING 02: maximum depth increased for Node STMMH04786
  WARNING 02: maximum depth increased for Node STMMH04788
  WARNING 02: maximum depth increased for Node STMMH04789
  WARNING 02: maximum depth increased for Node STMMH04790
  WARNING 02: maximum depth increased for Node STMMH04792
  WARNING 02: maximum depth increased for Node STMMH04793
  WARNING 02: maximum depth increased for Node STMMH04794
  WARNING 02: maximum depth increased for Node STMMH04795
  WARNING 02: maximum depth increased for Node STMMH04796
  WARNING 02: maximum depth increased for Node STMMH04797
  WARNING 02: maximum depth increased for Node STMMH04800
  WARNING 02: maximum depth increased for Node STMMH04801
  WARNING 02: maximum depth increased for Node STMMH04802
  WARNING 02: maximum depth increased for Node STMMH04805
  WARNING 02: maximum depth increased for Node STMMH04806
  WARNING 02: maximum depth increased for Node STMMH04807
  WARNING 02: maximum depth increased for Node STMMH04808
  WARNING 02: maximum depth increased for Node STMMH04811
  WARNING 02: maximum depth increased for Node STMMH04812
  WARNING 02: maximum depth increased for Node STMMH04813
  WARNING 02: maximum depth increased for Node STMMH04814
  WARNING 02: maximum depth increased for Node STMMH04817
  WARNING 02: maximum depth increased for Node STMMH04818
  WARNING 02: maximum depth increased for Node STMMH04819
  WARNING 02: maximum depth increased for Node STMMH04820
  WARNING 02: maximum depth increased for Node STMMH04821
  WARNING 02: maximum depth increased for Node STMMH04822
  WARNING 02: maximum depth increased for Node STMMH04844
  WARNING 02: maximum depth increased for Node STMMH04845
  WARNING 02: maximum depth increased for Node STMMH04847
  WARNING 02: maximum depth increased for Node STMMH04848
  WARNING 02: maximum depth increased for Node STMMH04849
  WARNING 02: maximum depth increased for Node STMMH04850
  WARNING 02: maximum depth increased for Node STMMH04851
  WARNING 02: maximum depth increased for Node STMMH04853
  WARNING 02: maximum depth increased for Node STMMH04854
  WARNING 02: maximum depth increased for Node STMMH04855
  WARNING 02: maximum depth increased for Node STMMH04857
  WARNING 02: maximum depth increased for Node STMMH04858
  WARNING 02: maximum depth increased for Node STMMH04859
  WARNING 02: maximum depth increased for Node STMMH04864
  WARNING 02: maximum depth increased for Node STMMH04865
  WARNING 02: maximum depth increased for Node STMMH04866
  WARNING 02: maximum depth increased for Node STMMH04867
  WARNING 02: maximum depth increased for Node STMMH04868
  WARNING 02: maximum depth increased for Node STMMH04869
  WARNING 02: maximum depth increased for Node STMMH04875
  WARNING 02: maximum depth increased for Node STMMH04876
  WARNING 02: maximum depth increased for Node STMMH04877
  WARNING 02: maximum depth increased for Node STMMH04878
  WARNING 02: maximum depth increased for Node STMMH04882
  WARNING 02: maximum depth increased for Node STMMH04883
  WARNING 02: maximum depth increased for Node STMMH04890
  WARNING 02: maximum depth increased for Node STMMH04891
  WARNING 02: maximum depth increased for Node STMMH04892
  WARNING 02: maximum depth increased for Node STMMH04895
  WARNING 02: maximum depth increased for Node STMMH04897
  WARNING 02: maximum depth increased for Node STMMH04898
  WARNING 02: maximum depth increased for Node STMMH04900
  WARNING 02: maximum depth increased for Node STMMH04901
  WARNING 02: maximum depth increased for Node STMMH04902
  WARNING 02: maximum depth increased for Node STMMH04903
  WARNING 02: maximum depth increased for Node STMMH04904
  WARNING 02: maximum depth increased for Node STMMH04905
  WARNING 02: maximum depth increased for Node STMMH04906
  WARNING 02: maximum depth increased for Node STMMH04907
  WARNING 02: maximum depth increased for Node STMMH04908
  WARNING 02: maximum depth increased for Node STMMH04909
  WARNING 02: maximum depth increased for Node STMMH04910
  WARNING 02: maximum depth increased for Node STMMH04911
  WARNING 02: maximum depth increased for Node STMMH04912
  WARNING 02: maximum depth increased for Node STMMH04914
  WARNING 02: maximum depth increased for Node STMMH04916
  WARNING 02: maximum depth increased for Node STMMH04917
  WARNING 02: maximum depth increased for Node STMMH04918
  WARNING 02: maximum depth increased for Node STMMH04919
  WARNING 02: maximum depth increased for Node STMMH04920
  WARNING 02: maximum depth increased for Node STMMH04921
  WARNING 02: maximum depth increased for Node STMMH04923
  WARNING 02: maximum depth increased for Node STMMH04925
  WARNING 02: maximum depth increased for Node STMMH04928
  WARNING 02: maximum depth increased for Node STMMH04929
  WARNING 02: maximum depth increased for Node STMMH04930
  WARNING 02: maximum depth increased for Node STMMH04931
  WARNING 02: maximum depth increased for Node STMMH04932
  WARNING 02: maximum depth increased for Node STMMH04933
  WARNING 02: maximum depth increased for Node STMMH04934
  WARNING 02: maximum depth increased for Node STMMH04935
  WARNING 02: maximum depth increased for Node STMMH04936
  WARNING 02: maximum depth increased for Node STMMH04938
  WARNING 02: maximum depth increased for Node STMMH04939
  WARNING 02: maximum depth increased for Node STMMH04940
  WARNING 02: maximum depth increased for Node STMMH04941
  WARNING 02: maximum depth increased for Node STMMH04943
  WARNING 02: maximum depth increased for Node STMMH04944
  WARNING 02: maximum depth increased for Node STMMH04945
  WARNING 02: maximum depth increased for Node STMMH04946
  WARNING 02: maximum depth increased for Node STMMH04947
  WARNING 02: maximum depth increased for Node STMMH04948
  WARNING 02: maximum depth increased for Node STMMH04949
  WARNING 02: maximum depth increased for Node STMMH04950
  WARNING 02: maximum depth increased for Node STMMH04951
  WARNING 02: maximum depth increased for Node STMMH04952
  WARNING 02: maximum depth increased for Node STMMH04953
  WARNING 02: maximum depth increased for Node STMMH04988
  WARNING 02: maximum depth increased for Node STMMH04989
  WARNING 02: maximum depth increased for Node STMMH05025
  WARNING 02: maximum depth increased for Node STMMH05026
  WARNING 02: maximum depth increased for Node STMMH05027
  WARNING 02: maximum depth increased for Node STMMH05028
  WARNING 02: maximum depth increased for Node STMMH05029
  WARNING 02: maximum depth increased for Node STMMH05033
  WARNING 02: maximum depth increased for Node STMMH05034
  WARNING 02: maximum depth increased for Node STMMH05035
  WARNING 02: maximum depth increased for Node STMMH05036
  WARNING 02: maximum depth increased for Node STMMH05037
  WARNING 02: maximum depth increased for Node STMMH05038
  WARNING 02: maximum depth increased for Node STMMH05040
  WARNING 02: maximum depth increased for Node STMMH05041
  WARNING 02: maximum depth increased for Node STMMH05042
  WARNING 02: maximum depth increased for Node STMMH05043
  WARNING 02: maximum depth increased for Node STMMH05044
  WARNING 02: maximum depth increased for Node STMMH05045
  WARNING 02: maximum depth increased for Node STMMH05047
  WARNING 02: maximum depth increased for Node STMMH05048
  WARNING 02: maximum depth increased for Node STMMH05049
  WARNING 02: maximum depth increased for Node STMMH05050
  WARNING 02: maximum depth increased for Node STMMH05051
  WARNING 02: maximum depth increased for Node STMMH05053
  WARNING 02: maximum depth increased for Node STMMH05055
  WARNING 02: maximum depth increased for Node STMMH05056
  WARNING 02: maximum depth increased for Node STMMH05057
  WARNING 02: maximum depth increased for Node STMMH05058
  WARNING 02: maximum depth increased for Node STMMH05059
  WARNING 02: maximum depth increased for Node STMMH05060
  WARNING 02: maximum depth increased for Node STMMH05061
  WARNING 02: maximum depth increased for Node STMMH05062
  WARNING 02: maximum depth increased for Node STMMH05063
  WARNING 02: maximum depth increased for Node STMMH05064
  WARNING 02: maximum depth increased for Node STMMH05065
  WARNING 02: maximum depth increased for Node STMMH05068
  WARNING 02: maximum depth increased for Node STMMH05069
  WARNING 02: maximum depth increased for Node STMMH05070
  WARNING 02: maximum depth increased for Node STMMH05071
  WARNING 02: maximum depth increased for Node STMMH05072
  WARNING 02: maximum depth increased for Node STMMH05073
  WARNING 02: maximum depth increased for Node STMMH05074
  WARNING 02: maximum depth increased for Node STMMH05075
  WARNING 02: maximum depth increased for Node STMMH05078
  WARNING 02: maximum depth increased for Node STMMH05083
  WARNING 02: maximum depth increased for Node STMMH05105
  WARNING 02: maximum depth increased for Node STMMH05108
  WARNING 02: maximum depth increased for Node STMMH05109
  WARNING 02: maximum depth increased for Node STMMH05110
  WARNING 02: maximum depth increased for Node STMMH05111
  WARNING 02: maximum depth increased for Node STMMH05112
  WARNING 02: maximum depth increased for Node STMMH05113
  WARNING 02: maximum depth increased for Node STMMH05114
  WARNING 02: maximum depth increased for Node STMMH05167
  WARNING 02: maximum depth increased for Node STMMH05173
  WARNING 02: maximum depth increased for Node STMMH05174
  WARNING 02: maximum depth increased for Node STMMH05175
  WARNING 02: maximum depth increased for Node STMMH05190
  WARNING 02: maximum depth increased for Node STMMH05191
  WARNING 02: maximum depth increased for Node STMMH05194
  WARNING 02: maximum depth increased for Node STMMH05195
  WARNING 02: maximum depth increased for Node STMMH05196
  WARNING 02: maximum depth increased for Node STMMH05197
  WARNING 02: maximum depth increased for Node STMMH05198
  WARNING 02: maximum depth increased for Node STMMH05200
  WARNING 02: maximum depth increased for Node STMMH05201
  WARNING 02: maximum depth increased for Node STMMH05209
  WARNING 02: maximum depth increased for Node STMMH05210
  WARNING 02: maximum depth increased for Node STMMH05221
  WARNING 02: maximum depth increased for Node STMMH05222
  WARNING 02: maximum depth increased for Node STMMH05223
  WARNING 02: maximum depth increased for Node STMMH05225
  WARNING 02: maximum depth increased for Node STMMH05227
  WARNING 02: maximum depth increased for Node STMMH05247
  WARNING 02: maximum depth increased for Node STMMH05248
  WARNING 02: maximum depth increased for Node STMMH05249
  WARNING 02: maximum depth increased for Node STMMH05250
  WARNING 02: maximum depth increased for Node STMMH05251
  WARNING 02: maximum depth increased for Node STMMH05252
  WARNING 02: maximum depth increased for Node STMMH05256
  WARNING 02: maximum depth increased for Node STMMH05257
  WARNING 02: maximum depth increased for Node STMMH05258
  WARNING 02: maximum depth increased for Node STMMH05261
  WARNING 02: maximum depth increased for Node STMMH05262
  WARNING 02: maximum depth increased for Node STMMH05265
  WARNING 02: maximum depth increased for Node STMMH05266
  WARNING 02: maximum depth increased for Node STMMH05296
  WARNING 02: maximum depth increased for Node STMMH05297
  WARNING 02: maximum depth increased for Node STMMH05300
  WARNING 02: maximum depth increased for Node STMMH05322
  WARNING 02: maximum depth increased for Node STMMH05323
  WARNING 02: maximum depth increased for Node STMMH05326
  WARNING 02: maximum depth increased for Node STMMH05327
  WARNING 02: maximum depth increased for Node STMMH05328
  WARNING 02: maximum depth increased for Node STMMH05329
  WARNING 02: maximum depth increased for Node STMMH05330
  WARNING 02: maximum depth increased for Node STMMH05331
  WARNING 02: maximum depth increased for Node STMMH05332
  WARNING 02: maximum depth increased for Node STMMH05333
  WARNING 02: maximum depth increased for Node STMMH05334
  WARNING 02: maximum depth increased for Node STMMH05336
  WARNING 02: maximum depth increased for Node STMMH05337
  WARNING 02: maximum depth increased for Node STMMH05339
  WARNING 02: maximum depth increased for Node STMMH05340
  WARNING 02: maximum depth increased for Node STMMH05341
  WARNING 02: maximum depth increased for Node STMMH05346
  WARNING 02: maximum depth increased for Node STMMH05347
  WARNING 02: maximum depth increased for Node STMMH05348
  WARNING 02: maximum depth increased for Node STMMH05349
  WARNING 02: maximum depth increased for Node STMMH05350
  WARNING 02: maximum depth increased for Node STMMH05352
  WARNING 02: maximum depth increased for Node STMMH05353
  WARNING 02: maximum depth increased for Node STMMH05354
  WARNING 02: maximum depth increased for Node STMMH05355
  WARNING 02: maximum depth increased for Node STMMH05356
  WARNING 02: maximum depth increased for Node STMMH05358
  WARNING 02: maximum depth increased for Node STMMH05359
  WARNING 02: maximum depth increased for Node STMMH05360
  WARNING 02: maximum depth increased for Node STMMH05361
  WARNING 02: maximum depth increased for Node STMMH05362
  WARNING 02: maximum depth increased for Node STMMH05363
  WARNING 02: maximum depth increased for Node STMMH05364
  WARNING 02: maximum depth increased for Node STMMH05365
  WARNING 02: maximum depth increased for Node STMMH05366
  WARNING 02: maximum depth increased for Node STMMH05368
  WARNING 02: maximum depth increased for Node STMMH05369
  WARNING 02: maximum depth increased for Node STMMH05372
  WARNING 02: maximum depth increased for Node STMMH05373
  WARNING 02: maximum depth increased for Node STMMH05374
  WARNING 02: maximum depth increased for Node STMMH05375
  WARNING 02: maximum depth increased for Node STMMH05376
  WARNING 02: maximum depth increased for Node STMMH05380
  WARNING 02: maximum depth increased for Node STMMH05381
  WARNING 02: maximum depth increased for Node STMMH05384
  WARNING 02: maximum depth increased for Node STMMH05385
  WARNING 02: maximum depth increased for Node STMMH05388
  WARNING 02: maximum depth increased for Node STMMH05389
  WARNING 02: maximum depth increased for Node STMMH05390
  WARNING 02: maximum depth increased for Node STMMH05391
  WARNING 02: maximum depth increased for Node STMMH05393
  WARNING 02: maximum depth increased for Node STMMH05394
  WARNING 02: maximum depth increased for Node STMMH05395
  WARNING 02: maximum depth increased for Node STMMH05396
  WARNING 02: maximum depth increased for Node STMMH05397
  WARNING 02: maximum depth increased for Node STMMH05398
  WARNING 02: maximum depth increased for Node STMMH05399
  WARNING 02: maximum depth increased for Node STMMH05400
  WARNING 02: maximum depth increased for Node STMMH05401
  WARNING 02: maximum depth increased for Node STMMH05402
  WARNING 02: maximum depth increased for Node STMMH05403
  WARNING 02: maximum depth increased for Node STMMH05404
  WARNING 02: maximum depth increased for Node STMMH05405
  WARNING 02: maximum depth increased for Node STMMH05406
  WARNING 02: maximum depth increased for Node STMMH05411
  WARNING 02: maximum depth increased for Node STMMH05412
  WARNING 02: maximum depth increased for Node STMMH05413
  WARNING 02: maximum depth increased for Node STMMH05414
  WARNING 02: maximum depth increased for Node STMMH05415
  WARNING 02: maximum depth increased for Node STMMH05416
  WARNING 02: maximum depth increased for Node STMMH05417
  WARNING 02: maximum depth increased for Node STMMH05445
  WARNING 02: maximum depth increased for Node STMMH05446
  WARNING 02: maximum depth increased for Node STMMH05447
  WARNING 02: maximum depth increased for Node STMMH05448
  WARNING 02: maximum depth increased for Node STMMH05489
  WARNING 02: maximum depth increased for Node STMMH05490
  WARNING 02: maximum depth increased for Node STMMH05491
  WARNING 02: maximum depth increased for Node STMMH05492
  WARNING 02: maximum depth increased for Node STMMH05494
  WARNING 02: maximum depth increased for Node STMMH05495
  WARNING 02: maximum depth increased for Node STMMH05496
  WARNING 02: maximum depth increased for Node STMMH05499
  WARNING 02: maximum depth increased for Node STMMH05500
  WARNING 02: maximum depth increased for Node STMMH05503
  WARNING 02: maximum depth increased for Node STMMH05504
  WARNING 02: maximum depth increased for Node STMMH05505
  WARNING 02: maximum depth increased for Node STMMH05510
  WARNING 02: maximum depth increased for Node STMMH05511
  WARNING 02: maximum depth increased for Node STMMH05512
  WARNING 02: maximum depth increased for Node STMMH05513
  WARNING 02: maximum depth increased for Node STMMH05514
  WARNING 02: maximum depth increased for Node STMMH05515
  WARNING 02: maximum depth increased for Node STMMH05516
  WARNING 02: maximum depth increased for Node STMMH05517
  WARNING 02: maximum depth increased for Node STMMH05521
  WARNING 02: maximum depth increased for Node STMMH05526
  WARNING 02: maximum depth increased for Node STMMH05565
  WARNING 02: maximum depth increased for Node STMMH05566
  WARNING 02: maximum depth increased for Node STMMH05568
  WARNING 02: maximum depth increased for Node STMMH05569
  WARNING 02: maximum depth increased for Node STMMH05570
  WARNING 02: maximum depth increased for Node STMMH05571
  WARNING 02: maximum depth increased for Node STMMH05572
  WARNING 02: maximum depth increased for Node STMMH05573
  WARNING 02: maximum depth increased for Node STMMH05574
  WARNING 02: maximum depth increased for Node STMMH05575
  WARNING 02: maximum depth increased for Node STMMH05576
  WARNING 02: maximum depth increased for Node STMMH05577
  WARNING 02: maximum depth increased for Node STMMH05578
  WARNING 02: maximum depth increased for Node STMMH05579
  WARNING 02: maximum depth increased for Node STMMH05580
  WARNING 02: maximum depth increased for Node STMMH05581
  WARNING 02: maximum depth increased for Node STMMH05582
  WARNING 02: maximum depth increased for Node STMMH05587
  WARNING 02: maximum depth increased for Node STMMH05588
  WARNING 02: maximum depth increased for Node STMMH05589
  WARNING 02: maximum depth increased for Node STMMH05590
  WARNING 02: maximum depth increased for Node STMMH05591
  WARNING 02: maximum depth increased for Node STMMH07343
  WARNING 02: maximum depth increased for Node STMMH07355
  WARNING 02: maximum depth increased for Node STMMH07358
  WARNING 02: maximum depth increased for Node STMMH07359
  WARNING 02: maximum depth increased for Node STMMH07360
  WARNING 02: maximum depth increased for Node STMMH07362
  WARNING 02: maximum depth increased for Node STMMH07376
  WARNING 02: maximum depth increased for Node STMMH07377
  WARNING 02: maximum depth increased for Node STMMH07493
  WARNING 02: maximum depth increased for Node STMMH07494
  WARNING 02: maximum depth increased for Node STMMH07495
  WARNING 02: maximum depth increased for Node STMMH07496
  WARNING 02: maximum depth increased for Node STMMH07497
  WARNING 02: maximum depth increased for Node STMMH07544
  WARNING 02: maximum depth increased for Node STMMH07545
  WARNING 02: maximum depth increased for Node STMMH07546
  WARNING 02: maximum depth increased for Node STMMH07563
  WARNING 02: maximum depth increased for Node STMMH07668
  WARNING 02: maximum depth increased for Node STMMH07671
  WARNING 02: maximum depth increased for Node STMMH07673
  WARNING 02: maximum depth increased for Node STMMH07674
  WARNING 02: maximum depth increased for Node STMMH07675
  WARNING 02: maximum depth increased for Node STMMH07684
  
  *************
  Element Count
  *************
  Number of rain gages ...... 3
  Number of subcatchments ... 3474
  Number of nodes ........... 1432
  Number of links ........... 1998
  Number of pollutants ...... 0
  Number of land uses ....... 0
  
  
  ****************
  Raingage Summary
  ****************
                                                      Data       Recording
  Name                 Data Source                    Type       Interval 
  ------------------------------------------------------------------------
  RG_DN54              \\mainfile-van\Projects\Active\3000714_DNV_SWMM\Model\PCSWMM\AdditionalWork_Scen5_ExDSB\timeseries\DN25_SCALING_200yr_RG_file.dat
  RG_DN64              \\mainfile-van\Projects\Active\3000714_DNV_SWMM\Model\PCSWMM\AdditionalWork_Scen5_ExDSB\timeseries\DN25_SCALING_200yr_RG_file.dat
  RG_FireHall          \\mainfile-van\Projects\Active\3000714_DNV_SWMM\Model\PCSWMM\AdditionalWork_Scen5_ExDSB\timeseries\DN25_SCALING_200yr_RG_file.dat
  
  
  ********************
  Subcatchment Summary
  ********************
  Name                       Area     Width   %Imperv    %Slope Rain Gage            Outlet              
  -----------------------------------------------------------------------------------------------------------
  10083-10--13298            0.07     35.39     70.00    9.4660 RG_DN64              STMMH04752          
  10083-11--13276            0.09     40.21     70.00   11.2950 RG_DN64              STMMH04754          
  10083-1--13307             0.09     38.36     70.00   11.5610 RG_DN64              DUMMH6254           
  10083-12--13312            0.09     38.96     70.00    9.7210 RG_DN64              STMMH04754          
  10083-2--13301             0.09     40.38     70.00   12.2160 RG_DN64              DUMMH6254           
  10083-3--13306             0.07     37.17     70.00   10.5160 RG_DN64              STMMH04751          
  10083-4--13304             0.07     36.10     70.00   12.0060 RG_DN64              STMMH04752          
  10083-5--13316             0.09     39.12     70.00   12.6760 RG_DN64              DUMMH6254           
  10083-6--13313             0.08     37.96     70.00   12.1540 RG_DN64              DUMMH6254           
  10083-7--13315             0.08     37.97     70.00    9.5880 RG_DN64              STMMH04746          
  10083-8--13314             0.07     37.80     70.00   14.5610 RG_DN64              STMMH04751          
  10083-9--13295             0.08     36.65     70.00    8.3010 RG_DN64              STMMH04752          
  10-11045-7--13521          0.08     37.13     70.00    8.4010 RG_DN64              STMMH04376          
  10-11045-8--13520          0.09     37.29     70.00   10.2140 RG_DN64              STMMH04376          
  10-12308-11--18459         0.07     35.67     70.00    7.2600 RG_DN64              STMMH04573          
  10-12308-1--18475          0.09     37.55     70.00   11.6480 RG_DN64              STMMH04566          
  10-12308-12--18465         0.08     35.08     70.00   11.5290 RG_DN64              STMMH04573          
  10-12308-13--13535         0.08     35.97     70.00   14.0910 RG_DN64              STMMH04572          
  10-12308-14--18464         0.09     42.44     70.00   12.7070 RG_DN64              STMMH04572          
  10-12308-15--18463         0.15     59.19     70.00   11.1120 RG_DN64              STMMH04507          
  10-12308-16--18434         0.13     49.14     70.00   13.6930 RG_DN64              STMMH04507          
  10-12308-17--18466         0.12     43.02     70.00   16.1440 RG_DN64              STMMH04572          
  10-12308--18476            0.08     35.14     70.00   11.5520 RG_DN64              STMMH04566          
  10-12308-3--18533          0.07     34.29     70.00   11.2320 RG_DN64              STMMH04573          
  1012308-4--18470           0.08     36.03     70.00   10.9130 RG_DN64              STMMH04573          
  10-1532-10--13246          0.06     28.62     70.00   17.1000 RG_DN64              STMMH05170          
  10-1532-11--13243          0.06     28.79     70.00   16.0210 RG_DN64              STMMH05170          
  10-1532-1--13242           0.06     28.16     70.00   12.7080 RG_DN64              STMMH04929          
  10-1532-2--13250           0.06     28.12     70.00   14.1070 RG_DN64              STMMH04932          
  10-1532-5--13240           0.06     28.14     70.00   14.1050 RG_DN64              STMMH05173          
  10-1532-6--13247           0.06     28.39     70.00   14.2090 RG_DN64              STMMH05173          
  10-1532-7--13244           0.06     28.65     70.00   15.0760 RG_DN64              STMMH04934          
  10-1532-8--13239           0.06     28.46     70.00   15.6170 RG_DN64              STMMH04934          
  10-1532-9--13245           0.06     27.94     70.00   14.9550 RG_DN64              STMMH04934          
  10197-A--10179             0.07     36.32     70.00    6.0060 RG_DN64              STMMH07496          
  10197-B--5362              0.07     36.63     70.00    6.6760 RG_DN64              STMMH07496          
  10197-C--5332              0.16     59.27     70.00    7.0800 RG_DN64              STMMH04474          
  10197-E--5165              0.14     54.86     70.00    5.3210 RG_DN64              DUMMH6890           
  10197-F--10130             0.11     47.01     70.00    5.6650 RG_DN64              STMMH04477          
  10206-10--10163            0.08     39.32     70.00   10.4870 RG_DN64              STMMH04422          
  10206-1--10094             0.10     42.59     70.00    7.8190 RG_DN64              STMMH04417          
  10206-11--10149            0.09     53.52     70.00    8.7960 RG_DN64              STMMH04422          
  10206-12--10150            0.13     54.20     70.00   13.6020 RG_DN64              DUMMH6728           
  10206-13--10158            0.10     51.16     70.00   13.5360 RG_DN64              DUMMH6728           
  10206-14--10110            0.09     45.60     70.00   13.5800 RG_DN64              STMMH04422          
  10206-15--10155            0.09     41.81     70.00   10.3550 RG_DN64              STMMH04422          
  10206-16--10084            0.09     40.45     70.00    9.1540 RG_DN64              STMMH04422          
  10206-17--10168            0.08     44.15     70.00    7.2610 RG_DN64              STMMH04419          
  10206-18--10111            0.11     48.39     70.00   10.7660 RG_DN64              STMMH04418          
  10206-19--10156            0.09     40.68     70.00    7.7440 RG_DN64              STMMH04417          
  10206-20--10154            0.10     44.89     70.00    7.3170 RG_DN64              STMMH04411          
  10206-21--10153            0.10     43.03     70.00    7.5530 RG_DN64              DUMMH02069          
  10206-22--10157            0.08     37.28     70.00    5.5670 RG_DN64              DUMMH02069          
  10206-23--15024            0.09     40.81     70.00    5.0400 RG_DN64              STMMH04412          
  10206-24--15023            0.09     40.73     70.00    7.1180 RG_DN64              STMMH04412          
  10206-25--10159            0.09     40.77     70.00    5.9170 RG_DN64              DUMMH6729           
  10206-2--5199              0.10     43.77     70.00    8.6440 RG_DN64              STMMH04417          
  10206-26--10102            0.09     40.50     70.00    6.6590 RG_DN64              STMMH04413          
  10206-27--10166            0.09     43.41     70.00    6.2780 RG_DN64              STMMH04414          
  10206-3--10087             0.10     44.81     70.00    4.5290 RG_DN64              STMMH04365          
  10206-4--10118             0.12     51.88     70.00    5.5800 RG_DN64              STMMH04418          
  10206-5--10119             0.09     45.95     70.00    6.3160 RG_DN64              STMMH04418          
  10206-6--15016             0.08     39.71     70.00    8.5010 RG_DN64              STMMH04366          
  10206-7--10129             0.08     43.89     70.00    8.0890 RG_DN64              STMMH04419          
  10206-8--10128             0.08     40.09     70.00    7.4170 RG_DN64              STMMH04421          
  10206-9--10162             0.08     43.27     70.00    8.4670 RG_DN64              STMMH04419          
  10206-PK--10152            0.29     57.18      0.00   13.0000 RG_DN64              DUMMH6729           
  10235-1--5392              0.08     38.29     70.00    6.2560 RG_DN64              STMMH07497          
  10235-2--5358              0.08     37.23     70.00    5.8980 RG_DN64              STMMH07497          
  10235-3--5366              0.08     38.23     70.00   10.7800 RG_DN64              STMMH07497          
  10235-4--15030             0.08     37.63     70.00   12.8910 RG_DN64              STMMH07497          
  10235-5--5330              0.08     38.03     70.00   11.0270 RG_DN64              STMMH04444          
  10235-6--5135              0.08     37.46     70.00    8.7310 RG_DN64              STMMH04444          
  10267-10--15029            0.08     40.20     70.00   13.1880 RG_DN64              STMMH04461          
  10267-1--14986             0.09     43.00     70.00    6.8550 RG_DN64              STMMH04469          
  10267-11--5372             0.08     36.14     70.00    7.6960 RG_DN64              STMMH04462          
  10267-12--5313             0.09     41.13     70.00    7.9970 RG_DN64              STMMH04471          
  10267-13--5363             0.09     41.37     70.00    9.8790 RG_DN64              STMMH04471          
  10267-14--15012            0.09     41.15     70.00    9.7260 RG_DN64              DUMMH6888           
  10267-15--5374             0.09     41.00     70.00    7.2580 RG_DN64              STMMH04466          
  10267-16--5373             0.09     41.18     70.00    8.2440 RG_DN64              STMMH04471          
  10267-17--5390             0.09     40.91     70.00    9.6000 RG_DN64              DUMMH6726           
  10267-2--10115             0.10     42.38     70.00    7.6240 RG_DN64              STMMH04469          
  10267-3--15019             0.11     47.58     70.00    8.1870 RG_DN64              STMMH04470          
  10267-4--10095             0.10     43.64     70.00    9.3080 RG_DN64              STMMH04468          
  10267-5--5361              0.09     41.90     70.00    7.9920 RG_DN64              STMMH04467          
  10267-7--5359              0.09     41.04     70.00    8.0570 RG_DN64              STMMH04467          
  10267-8--5357              0.08     40.35     70.00    9.7890 RG_DN64              STMMH04466          
  10267-9--5352              0.09     40.42     70.00   11.3530 RG_DN64              STMMH04466          
  10267-PK--10090            0.17     64.72      0.40   21.2580 RG_DN64              DUMMH6887           
  10267-PK-2--5314           0.12     36.35      0.20   31.5930 RG_DN64              DUMMH6888           
  10307-1--5235              0.09     37.90     70.00   12.6530 RG_DN64              STMMH04668          
  10307-2--5236              0.08     34.69     70.00   14.2690 RG_DN64              STMMH04668          
  10307-3--5237              0.08     34.86     70.00   13.4570 RG_DN64              STMMH04668          
  10307-4--5238              0.08     37.14     70.00   10.9790 RG_DN64              STMMH04634          
  10309-A--9219              0.12     37.81     70.00   24.9920 RG_DN54              STMMH05252          
  10309-B--9215              0.11     37.56     70.00   24.4060 RG_DN54              STMMH05254          
  10-329-1--13324            0.21     68.37      0.00   61.4030 RG_DN64              DUMMH02116          
  10-329-1--13326            0.37     89.04      0.00   41.8030 RG_DN64              DUMMH5994           
  10-329-1--18410            0.41     79.87      0.00   57.2600 RG_DN64              DUMMH5994           
  10-329-45--13325           0.25     67.07     24.60   16.0040 RG_DN64              STMMH05078          
  10340-G--5117              0.07     29.66     70.00   10.8510 RG_DN64              STMMH04600          
  10340-H--5121              0.08     30.48     70.00   10.0170 RG_DN64              DUMMH6825           
  10468-A--20676             0.09     42.11     70.00    8.5100 RG_DN64              STMMH04477          
  10468-B--20675             0.09     35.88     70.00    8.3820 RG_DN64              STMMH04511          
  10468-C--20678             0.09     36.14     70.00    9.0520 RG_DN64              STMMH04511          
  10468-D--20680             0.10     38.95     70.00    9.5500 RG_DN64              STMMH04511          
  10468-E--20690             0.09     36.17     70.00    6.4420 RG_DN64              STMMH04510          
  10468-F--20670             0.09     36.27     70.00    8.4600 RG_DN64              STMMH04510          
  10468-G--20677             0.10     38.67     70.00   10.0110 RG_DN64              STMMH04510          
  10468-H--20684             0.10     39.05     70.00   11.0470 RG_DN64              STMMH04509          
  10468-I--20679             0.09     36.19     70.00    9.4640 RG_DN64              STMMH04509          
  10468-J--20685             0.10     38.88     70.00    5.4210 RG_DN64              STMMH04509          
  10468-K--13552             0.09     36.13     70.00    5.3610 RG_DN64              STMMH04508          
  10468-L--18547             0.09     36.76     70.00    6.8190 RG_DN64              STMMH04508          
  10468-M--13517             0.10     42.89     70.00    7.6470 RG_DN64              STMMH04504          
  10468-N--18468             0.08     39.42     70.00    9.0000 RG_DN64              STMMH04504          
  10468-O--13466             0.07     36.34     70.00    8.3400 RG_DN64              STMMH04504          
  10468-P--18546             0.07     34.78     70.00   10.2290 RG_DN64              STMMH04504          
  10511-A--5364              0.08     35.48     70.00   14.8420 RG_DN64              STMMH04635          
  10511-B--15025             0.08     35.64     70.00   16.6260 RG_DN64              STMMH04635          
  10511-C--5335              0.08     35.88     70.00   14.4780 RG_DN64              STMMH04669          
  10511-D--5334              0.08     35.30     70.00   15.3800 RG_DN64              STMMH04669          
  10511-E--5136              0.07     35.12     70.00   14.8750 RG_DN64              STMMH04669          
  10511-F--10187             0.07     33.70     70.00   11.8130 RG_DN64              STMMH04664          
  10511-G--10188             0.07     33.11     70.00   10.8080 RG_DN64              STMMH04664          
  10511-H--10189             0.07     33.18     70.00   10.7130 RG_DN64              STMMH04665          
  10511-J--14997             0.08     33.68     70.00   11.4720 RG_DN64              STMMH04665          
  10511-K--5351              0.08     34.09     70.00   10.6690 RG_DN64              STMMH04664          
  10518-3--10068             0.05     28.81     70.00   12.7440 RG_DN64              STMMH04756          
  10518-3--13303             0.04     21.52     70.00   13.2130 RG_DN64              STMMH04757          
  10518-4--13305             0.08     40.56     70.00   10.1570 RG_DN64              STMMH04757          
  10518-5--13302             0.09     41.97     70.00   13.2300 RG_DN64              STMMH04753          
  10850-4--5413              0.08     36.48     70.00   12.8850 RG_DN64              STMMH04658          
  10-9207-2--18462           0.07     36.37     70.00    7.8750 RG_DN64              STMMH04507          
  10-9207-3--18552           0.07     35.96     70.00    7.1730 RG_DN64              STMMH04507          
  10935-B--8825              0.07     32.57     70.00    9.1270 RG_DN64              STMMH04758          
  10935-D--8830              0.07     34.11     70.00    9.3990 RG_DN64              STMMH04776          
  10935-E--8829              0.07     33.35     70.00    8.3840 RG_DN64              STMMH04776          
  10935-F--8851              0.07     34.10     70.00   13.4040 RG_DN64              STMMH04780          
  10935-H--3614              0.15     64.55     70.00   15.9560 RG_DN64              STMMH05307          
  10935-I--8752              0.08     38.90     70.00   10.8490 RG_DN64              STMMH05308          
  10935-K--3627              0.07     33.27     70.00   16.1920 RG_DN64              DUMMH02118          
  10935-L--8775              0.07     33.10     70.00   17.6450 RG_DN64              STMMH04934          
  10935-M--8772              0.06     31.78     70.00   19.1470 RG_DN64              STMMH04934          
  10935-N--8767              0.06     31.45     70.00   20.7160 RG_DN64              STMMH04934          
  10935-O--8766              0.06     30.79     70.00   17.3080 RG_DN64              STMMH04931          
  10935-P--8727              0.08     36.89     70.00   15.5240 RG_DN64              STMMH04931          
  10935-PK--8579             1.08    157.64      0.00   45.2760 RG_DN64              DUMMH6741           
  10935-R--8750              0.07     35.78     70.00   16.7630 RG_DN64              STMMH04935          
  10935-S--8902              0.07     35.21     70.00   21.3970 RG_DN64              STMMH04928          
  10935-T--13249             0.06     30.14     70.00   15.2060 RG_DN64              STMMH04933          
  10935-U--13256             0.07     32.80     70.00   14.1460 RG_DN64              STMMH05171          
  10935-V--13254             0.06     29.60     70.00   21.9070 RG_DN64              STMMH05171          
  10935-W1--13238            3.34    224.35      0.20   48.8360 RG_DN64              DUMMH5993           
  10935-W1--13576            0.01      4.45      0.00   36.1720 RG_DN64              STMMH04920          
  10935-W1--3603             1.42    160.58      2.30   17.2300 RG_DN64              STMMH05307          
  10935-W1--3620             0.02      7.10      3.90   13.4970 RG_DN64              STMMH04762          
  10935-W1--8588             0.04     17.83     70.00   33.0250 RG_DN64              DUMMH5824           
  10935-W1--8743             0.01      6.52      0.00   27.0890 RG_DN64              STMMH04926          
  10935-W77--13559           2.28    256.26     28.90   12.3590 RG_DN64              DUMMH6743           
  10949-A--19080             0.90    125.60      6.30   10.8310 RG_FireHall          STMMH05489          
  10949-B--14189             0.90     93.88      3.60   10.5840 RG_FireHall          STMMH05365          
  10949-C--14170             0.12     49.91      1.80    9.7650 RG_FireHall          STMMH05363          
  10949-J--14178             0.06     29.95     70.00    6.7520 RG_FireHall          STMMH05355          
  10992-1--8855              0.10     46.30     70.00    8.0030 RG_DN64              STMMH04782          
  10992-2--8863              0.09     46.41     70.00   11.9740 RG_DN64              STMMH04788          
  10992-3--8865              0.08     41.01     70.00   12.2290 RG_DN64              STMMH04788          
  10992-4--8868              0.08     43.64     70.00   13.8880 RG_DN64              STMMH04788          
  10-BCP46708-1--19134       0.48    101.42     85.00    7.5860 RG_FireHall          DUMMH6911           
  10-BCP46708-1--20794       0.10     37.62     85.00   12.6410 RG_FireHall          STMMH05329          
  11045-10--13473            0.08     40.21     70.00   10.0050 RG_DN64              STMMH04377          
  11045-11--13546            0.09     40.43     70.00    7.4290 RG_DN64              STMMH04376          
  11045-1--13509             0.07     37.48     70.00   13.2350 RG_DN64              STMMH04377          
  11045-12--13549            0.09     39.80     70.00   13.7300 RG_DN64              STMMH04376          
  11045-13--13548            0.09     42.35     70.00   15.2100 RG_DN64              STMMH04375          
  11045-2--13409             0.08     37.11     70.00   15.1690 RG_DN64              STMMH04378          
  11045-4--18469             0.08     38.31     70.00   13.1690 RG_DN64              STMMH04506          
  11045-5--13522             0.07     36.20     70.00   10.6330 RG_DN64              STMMH04506          
  11045-6--13523             0.07     35.62     70.00   11.6680 RG_DN64              STMMH04506          
  11045-7--10104             0.08     39.91     70.00    7.2570 RG_DN64              STMMH04366          
  11045-8--10086             0.05     36.65     70.00    9.0620 RG_DN64              STMMH04420          
  11045-8--13527             0.04     31.88     70.00    6.3570 RG_DN64              STMMH04373          
  11045-9--13488             0.08     35.77     70.00   12.5500 RG_DN64              STMMH04376          
  11082-M--15026             0.07     33.56     70.00   11.2930 RG_DN64              STMMH04665          
  11082-N--5365              0.07     33.69     70.00    9.8860 RG_DN64              STMMH04666          
  11082-P--5389              0.08     34.10     70.00    9.3270 RG_DN64              STMMH04665          
  11082-Q--5326              0.07     33.46     70.00    9.4440 RG_DN64              STMMH04666          
  11082-R--14999             0.12     49.61     70.00   11.1270 RG_DN64              STMMH04672          
  11082-S--5377              0.12     50.12     70.00   23.0140 RG_DN64              STMMH04672          
  11-11045-10--19995         0.09     40.14     70.00    7.5460 RG_DN64              STMMH04366          
  11-11045-11--19990         0.09     40.09     70.00    8.6090 RG_DN64              STMMH04366          
  11-11045-12--19989         0.09     39.70     70.00    7.4760 RG_DN64              STMMH04365          
  11-11045-9--19987          0.08     39.16     70.00    6.9570 RG_DN64              STMMH04366          
  11125-B--5225              0.08     37.98     70.00   23.6650 RG_DN64              STMMH07498          
  11125-C--5151              0.08     38.62     70.00   31.3780 RG_DN64              STMMH07498          
  11125-D--5182              0.10     46.63     70.00    5.3590 RG_DN64              STMMH04409          
  11125-E--10107             0.10     47.94     70.00    6.7270 RG_DN64              STMMH04409          
  11125-F--10121             0.11     45.00     70.00   11.2020 RG_DN64              STMMH04411          
  11125-G--10126             0.10     43.15     70.00    7.8110 RG_DN64              STMMH04411          
  11125-H--10199             0.07     35.99     70.00    7.4050 RG_DN64              STMMH04363          
  11125-H--20674             0.00      3.35     70.00    7.6980 RG_DN64              STMMH04363          
  11125-I--19986             0.07     34.29     70.00    8.3300 RG_DN64              STMMH04365          
  11125-K--13465             0.07     38.87     70.00    5.1930 RG_DN64              STMMH04363          
  11125-L--13555             0.07     35.51     70.00    5.3910 RG_DN64              STMMH04363          
  11125-M--13554             0.07     34.27     70.00    7.4370 RG_DN64              STMMH04363          
  11125-N--13553             0.08     41.03     70.00    5.0970 RG_DN64              STMMH04367          
  11125-O--13458             0.08     41.50     70.00    7.6360 RG_DN64              STMMH04367          
  11125-P--5163              0.11     50.67     70.00   17.4690 RG_DN64              STMMH04332          
  11125-Q--20669             0.08     40.67     70.00   21.0580 RG_DN64              STMMH04332          
  11126-1--3625              0.08     36.35     70.00   16.3930 RG_DN64              DUMMH02119          
  11126-2--3626              0.08     35.43     70.00   13.4860 RG_DN64              STMMH04769          
  11126-3--3615              0.08     40.03     70.00   15.0290 RG_DN64              STMMH04769          
  11126-4--8723              0.08     38.01     70.00   11.1410 RG_DN64              STMMH04769          
  11126-5--8778              0.07     37.25     70.00   13.6430 RG_DN64              STMMH04771          
  11126-6--8846              0.07     36.36     70.00   13.4050 RG_DN64              STMMH04768          
  11126-7--8726              0.07     32.80     70.00   11.1330 RG_DN64              STMMH04768          
  11126-8--8785              0.08     41.28     70.00   13.6030 RG_DN64              STMMH04768          
  11-12763--19116            0.04     10.63      0.00   23.9090 RG_FireHall          STMMH05325          
  11-12763--19136            0.03      8.65      0.00   19.7640 RG_FireHall          STMMH05324          
  111419-15--3592            0.06     24.18      0.00   26.3080 RG_DN64              DUMMH5760           
  11-1532-2--13252           0.06     28.12     70.00   14.5910 RG_DN64              STMMH04933          
  11-1532-3--13253           0.06     28.31     70.00   18.2190 RG_DN64              STMMH04933          
  11-1532-4--13317           0.03     15.10     70.00   20.6500 RG_DN64              STMMH04933          
  11-1532-4--8586            0.03     16.99     70.00   21.2740 RG_DN64              STMMH04933          
  11-1532-5--8576            0.06     28.58     70.00   45.0440 RG_DN64              STMMH05168          
  11-1532-6--8587            0.06     27.98     70.00   18.0510 RG_DN64              DUMMH5760           
  11-1532-7--8589            0.06     28.27     70.00   16.0090 RG_DN64              DUMMH5760           
  11165-1--5375              0.08     37.34     70.00    7.1750 RG_DN64              STMMH04455          
  11165-2--5141              0.08     36.57     70.00    8.4800 RG_DN64              STMMH04648          
  11165-3--5382              0.09     38.14     70.00    5.1890 RG_DN64              STMMH04648          
  11165-4--5381              0.08     36.00     70.00    8.4700 RG_DN64              STMMH04651          
  11254-10--8793             0.09     41.86     70.00   18.4280 RG_DN64              STMMH04770          
  11254-11--8753             0.10     46.67     70.00   17.6930 RG_DN64              STMMH04773          
  11254-12--8796             0.08     38.07     70.00   17.9830 RG_DN64              DUMMH02120          
  11254-5--8729              0.08     39.01     70.00   10.1430 RG_DN64              STMMH04770          
  11254-6--8746              0.08     36.05     70.00   13.7520 RG_DN64              STMMH04770          
  11254-7--8730              0.08     36.66     70.00   16.4180 RG_DN64              STMMH04770          
  11254-8--8804              0.09     37.51     70.00   14.8970 RG_DN64              STMMH07669          
  11254-9--8803              0.10     43.61     70.00   19.1910 RG_DN64              STMMH04770          
  11262-3--19771             0.08     36.87     70.00   22.5360 RG_DN64              STMMH04690          
  11262-4--19761             0.08     37.07     70.00   12.1490 RG_DN64              STMMH04691          
  11382-1--14171             1.33    190.52     56.90    7.0840 RG_FireHall          STMMH05350          
  11382-1--20816             0.28     36.41     35.30   11.3600 RG_FireHall          DUMMH02187          
  11419-13--3587             0.18     75.91     70.00   12.4820 RG_DN64              DUMMH6835           
  11419-14--13237            0.16     69.92     70.00   28.6070 RG_DN64              DUMMH6835           
  11419-9--10051             0.25     72.35     95.00   12.3630 RG_DN64              STMMH04710          
  11419-A--10038             2.53    268.89     75.00   10.1330 RG_DN64              STMMH07343          
  11473-2--5398              0.09     35.41     70.00   14.1410 RG_DN64              STMMH04659          
  11473-3--5406              0.09     35.55     70.00   13.6190 RG_DN64              STMMH04659          
  11473-4--15043             0.09     35.51     70.00   11.9260 RG_DN64              STMMH04662          
  11473-5--5407              0.09     37.16     70.00   15.0200 RG_DN64              STMMH04662          
  11473-6--5408              0.10     49.88     70.00   11.4200 RG_DN64              STMMH04662          
  11473-7--14998             0.09     38.43     70.00   10.8420 RG_DN64              STMMH04666          
  11473-8--5323              0.13     48.94     70.00   12.3210 RG_DN64              STMMH04661          
  11473-9--5325              0.13     48.66     70.00   16.6560 RG_DN64              DUMMH02411          
  11485-10--8738             0.08     36.93     70.00   10.0520 RG_DN64              STMMH04766          
  11485-11--8786             0.11     43.54     70.00   11.8910 RG_DN64              STMMH04766          
  11485-12--13583            0.09     36.10     70.00    9.2740 RG_DN64              STMMH04766          
  11485-13--13605            0.08     36.33     70.00    7.9350 RG_DN64              DUMMH02117          
  11485-14--8839             0.07     35.39     70.00    9.1760 RG_DN64              DUMMH02117          
  11485-15--8840             0.08     39.44     70.00    8.7980 RG_DN64              STMMH04765          
  11485-16--8847             0.09     44.79     70.00    7.1430 RG_DN64              STMMH04765          
  11485-17--8841             0.10     43.85     70.00    6.9870 RG_DN64              STMMH04764          
  11485-18--8838             0.08     41.15     70.00    8.2330 RG_DN64              STMMH04759          
  11485-19--8826             0.08     35.21     70.00   10.6610 RG_DN64              STMMH04764          
  11485-20--8833             0.08     37.33     70.00   11.6220 RG_DN64              STMMH04764          
  11485-21--8831             0.10     42.60     70.00   12.1130 RG_DN64              STMMH05074          
  11485-22--8819             0.09     43.35     70.00   15.9890 RG_DN64              STMMH04765          
  11485-23--8818             0.11     42.47     70.00   10.5100 RG_DN64              STMMH04775          
  11485-24--8820             0.09     39.26     70.00   10.6360 RG_DN64              STMMH04775          
  11485-25--8821             0.08     37.02     70.00    8.7620 RG_DN64              STMMH04775          
  11485-26--8853             0.10     47.16     70.00   11.7590 RG_DN64              STMMH04779          
  11485-27--8849             0.09     43.66     70.00   10.5650 RG_DN64              STMMH04778          
  11485-28--8859             0.08     42.16     70.00   12.2210 RG_DN64              STMMH04765          
  11485-29--8860             0.08     40.16     70.00   16.3380 RG_DN64              STMMH04767          
  11485-30--8856             0.08     38.60     70.00   11.9210 RG_DN64              STMMH04778          
  11485-31--8852             0.18     67.73     70.00   12.5540 RG_DN64              STMMH04780          
  11485-32--8867             0.10     50.29     70.00    8.4290 RG_DN64              STMMH04953          
  11485-33--8866             0.11     50.63     70.00    9.5340 RG_DN64              STMMH04788          
  11485-34--13602            0.09     43.80     70.00    7.2510 RG_DN64              STMMH04788          
  11485-35--8862             0.09     42.43     70.00    7.1680 RG_DN64              STMMH04953          
  11485-36--8864             0.08     38.87     70.00    9.2130 RG_DN64              STMMH04767          
  11485-37--8861             0.07     37.77     70.00    9.0720 RG_DN64              STMMH04766          
  11485-38--8845             0.07     38.86     70.00    8.6180 RG_DN64              STMMH04766          
  11485-9--8843              0.08     41.44     70.00    8.4270 RG_DN64              STMMH04763          
  11488-B--5247              0.11     46.86     70.00    8.7570 RG_DN64              STMMH04638          
  11488-C--5229              0.08     34.23     70.00    9.7580 RG_DN64              STMMH04638          
  11488-D--10222             0.07     32.86     70.00    8.8400 RG_DN64              STMMH04632          
  1-1532-10--3622            0.11     30.10     70.00   22.6350 RG_DN64              STMMH05177          
  1-1532-11--3597            0.11     32.57     70.00   18.2820 RG_DN64              STMMH05177          
  1-1532-12--3598            0.11     36.17     70.00   16.8730 RG_DN64              STMMH05177          
  1-1532-1--3601             0.05     27.55     70.00   33.0900 RG_DN64              DUMMH6735           
  1-1532-2--3607             0.06     28.16     70.00   31.1220 RG_DN64              DUMMH6735           
  1-1532-3--3595             0.06     32.14     70.00   22.9480 RG_DN64              DUMMH6735           
  1-1532-4--3619             0.06     31.04     70.00   14.5370 RG_DN64              STMMH05178          
  1-1532-5--3621             0.08     33.09     70.00   19.6150 RG_DN64              STMMH05178          
  1-1532-6--3604             0.09     35.91     70.00   18.7510 RG_DN64              STMMH05179          
  1-1532-7--3609             0.10     34.76     70.00   15.1540 RG_DN64              STMMH05179          
  1-1532-8--3610             0.10     33.21     70.00   19.0890 RG_DN64              STMMH05179          
  1-1532-9--3600             0.10     31.09     70.00   17.3880 RG_DN64              STMMH05179          
  11645-2--39                0.07     35.93     70.00    8.6460 RG_DN64              STMMH04635          
  11736-1--14208             0.07     34.56     70.00    6.2140 RG_FireHall          DUMMH6306           
  11736-2--14158             0.07     35.28     70.00    3.7350 RG_FireHall          DUMMH6306           
  11736-3--14159             0.07     35.49     70.00    2.9800 RG_FireHall          DUMMH02189          
  11739-1--14183             0.07     33.16     70.00    5.9480 RG_FireHall          STMMH05353          
  11849-A--19772             0.08     40.00     70.00   13.5320 RG_DN64              STMMH04622          
  11849-B--21263             0.08     37.03     70.00   18.6900 RG_DN64              STMMH04690          
  11947-10--8842             0.08     35.71     70.00   17.1760 RG_DN64              STMMH04760          
  11947-1--13570             0.08     39.82     70.00   20.3200 RG_DN64              STMMH04758          
  11947-11--8836             0.08     37.03     70.00   10.6260 RG_DN64              STMMH04760          
  11947-12--8832             0.08     39.98     70.00   10.1250 RG_DN64              STMMH04759          
  11947-2--13569             0.08     37.04     70.00   18.7910 RG_DN64              STMMH04758          
  11947-3--13568             0.08     35.37     70.00    9.5100 RG_DN64              STMMH04759          
  11947-4--8769              0.08     36.68     70.00   13.5550 RG_DN64              STMMH04759          
  11947-5--8771              0.08     36.55     70.00    9.4320 RG_DN64              STMMH04759          
  11947-6--13567             0.07     34.40     70.00    9.5810 RG_DN64              STMMH04760          
  11947-7--13566             0.07     33.22     70.00   14.4620 RG_DN64              STMMH04760          
  11947-8--13573             0.07     33.77     70.00    7.2480 RG_DN64              STMMH04760          
  11947-9--13582             0.08     37.71     70.00    7.6590 RG_DN64              STMMH04760          
  11947-PK--8578             0.47    104.18      0.10   55.3900 RG_DN64              DUMMH5998           
  1-1950-1--19072            1.00    116.53     10.40   13.7730 RG_FireHall          DUMMH02202          
  1-1950-2--18988            0.98    116.10     23.00   13.6940 RG_FireHall          DUMMH6365           
  1-1950-2RD--19073          0.05     23.42     49.80   11.2440 RG_FireHall          STMMH05402          
  1-1950-3--19074            0.99    125.96     17.70   13.6260 RG_FireHall          STMMH05496          
  1-1950-3RD--19076          0.05     21.64     63.00    7.3870 RG_FireHall          STMMH05403          
  12052-A--20689             0.09     40.17     70.00   14.1200 RG_DN64              DUMMH6726           
  12069-A--15039             0.07     34.47     70.00   10.8940 RG_DN64              STMMH04663          
  12069-B--5396              0.07     32.80     70.00   10.8570 RG_DN64              STMMH04655          
  12069-C--5341              0.08     40.59     70.00   14.4660 RG_DN64              STMMH04655          
  12069-D--5340              0.10     44.88     70.00    9.9850 RG_DN64              STMMH04656          
  12069-E--5338              0.09     42.68     70.00   13.9480 RG_DN64              STMMH04656          
  12069-F--5324              0.08     41.60     70.00   17.5710 RG_DN64              DUMMH02411          
  1-20889-3--14297           0.02     13.20      0.00   14.7940 RG_FireHall          STMMH05579          
  12237-1--13299             0.10     44.03     70.00   15.7820 RG_DN64              STMMH04750          
  12237-1--18593             0.02     15.66     70.00   11.2860 RG_DN64              STMMH04750          
  12267-A--10208             0.07     34.83     70.00   10.9300 RG_DN64              STMMH04446          
  12267-B--5296              0.07     35.54     70.00   12.5120 RG_DN64              STMMH04447          
  12267-C--5281              0.07     35.08     70.00   12.4820 RG_DN64              STMMH04447          
[...]
  STMSUR00044_4    TRAPEZOIDAL          3.00    20.25     1.43    12.75        1   110.71
  STMSUR00705      TRAPEZOIDAL          5.00    53.75     2.33    20.75        1   589.66
  STMSUR00706      TRAPEZOIDAL          3.00    20.25     1.43    12.75        1   438.43
  STMSUR00707      TRAPEZOIDAL          6.50    89.38     3.00    26.75        1    80.77
  STMSUR00709      TRAPEZOIDAL          4.50    43.88     2.10    18.75        1   577.38
  STMSUR00712      TRAPEZOIDAL          3.00    20.25     1.43    12.75        1   775.52
  STMSUR00720_1    TRAPEZOIDAL          3.00    20.25     1.43    12.75        1   157.82
  STMSUR00720_2    TRAPEZOIDAL          3.00    20.25     1.43    12.75        1   404.04
  STMSUR00723      TRAPEZOIDAL          3.00    20.25     1.43    12.75        1   168.04
  STMSUR00893_2    TRAPEZOIDAL          1.50     5.63     0.75     6.75        1    41.99
  STMSUR00893_3    TRAPEZOIDAL          1.50     5.63     0.75     6.75        1    33.16
  STMSUR00893_4    TRAPEZOIDAL          4.50    43.88     2.10    18.75        1   617.98
  STMSUR00893_5    TRAPEZOIDAL          1.50     5.63     0.75     6.75        1    38.36
  STMSUR00894      TRAPEZOIDAL          5.00    53.75     2.33    20.75        1   705.41
  STMSUR00896      TRAPEZOIDAL          1.50     5.63     0.75     6.75        1    30.01
  STMSUR00897      TRAPEZOIDAL          1.50     5.63     0.75     6.75        1    30.86
  STMSUR00901      TRAPEZOIDAL          5.00    53.75     2.33    20.75        1   636.66
  STMSUR00903_1    TRAPEZOIDAL          1.50     5.63     0.75     6.75        1    41.68
  STMSUR00903_2    TRAPEZOIDAL          1.50     5.63     0.75     6.75        1    49.89
  STMSUR00904      TRAPEZOIDAL          1.50     5.63     0.75     6.75        1    46.50
  STMSUR01019_1    TRAPEZOIDAL          3.00    20.25     1.43    12.75        1   117.12
  STMSUR01019_2    TRAPEZOIDAL          5.00    53.75     2.33    20.75        1   244.16
  STMSUR01020_1    TRAPEZOIDAL          3.00    20.25     1.43    12.75        1   126.02
  STMSUR01020_2    TRAPEZOIDAL          5.00    53.75     2.33    20.75        1   849.87
  STMSUR01021      TRAPEZOIDAL          5.00    53.75     2.33    20.75        1   316.43
  STMSUR01037      TRAPEZOIDAL          5.00    53.75     2.33    20.75        1  1000.89
  STMSUR01043_2    TRAPEZOIDAL          3.00    20.25     1.43    12.75        1    55.58
  STMSUR01043_4    TRAPEZOIDAL          3.00    20.25     1.43    12.75        1    81.53
  STMSUR01043_5    TRAPEZOIDAL          3.00    20.25     1.43    12.75        1   110.06
  STMSUR01043_6    TRAPEZOIDAL          3.00    20.25     1.43    12.75        1   186.08
  STMSUR01108_1    TRAPEZOIDAL          1.50     5.63     0.75     6.75        1    29.64
  STMSUR01108_2    TRAPEZOIDAL          4.50    43.88     2.10    18.75        1   633.93
  STMSUR01108_4    TRAPEZOIDAL          1.50     5.63     0.75     6.75        1    35.43
  STMSUR01108_5    TRAPEZOIDAL          1.50     5.63     0.75     6.75        1    34.57
  STMSUR01108_6    TRAPEZOIDAL          1.50     5.63     0.75     6.75        1    34.35
  STMSUR01108_7    TRAPEZOIDAL          1.50     5.63     0.75     6.75        1    32.66
  STMSUR01109      TRAPEZOIDAL          1.50     5.63     0.75     6.75        1    36.34
  STMSUR01110      TRAPEZOIDAL          3.00    20.25     1.43    12.75        1   128.39
  STMSUR01119_1    TRAPEZOIDAL          1.50     5.63     0.75     6.75        1    22.95
  STMSUR01119_2    TRAPEZOIDAL          3.00    20.25     1.43    12.75        1   256.09
  STMSUR01120_1    TRAPEZOIDAL          3.00    20.25     1.43    12.75        1   166.41
  STMSUR01120_2    TRAPEZOIDAL          3.00    20.25     1.43    12.75        1   139.61
  STMSUR01120_4    TRAPEZOIDAL          3.00    20.25     1.43    12.75        1    89.60
  STMSUR01120_5    TRAPEZOIDAL          3.00    20.25     1.43    12.75        1   194.64
  STMSUR01121_1    TRAPEZOIDAL          3.00    20.25     1.43    12.75        1   212.41
  STMSUR01121_2    TRAPEZOIDAL          3.00    20.25     1.43    12.75        1   168.32
  STMSUR02385_1    TRAPEZOIDAL          3.00    20.25     1.43    12.75        1    31.96
  STMSUR02385_2    TRAPEZOIDAL          3.00    20.25     1.43    12.75        1    32.01
  STMSUR02389      TRAPEZOIDAL          3.00    20.25     1.43    12.75        1   237.06
  STMSUR02414      TRAPEZOIDAL          3.00    20.25     1.43    12.75        1   199.29
  STMSUR02460_1    TRAPEZOIDAL          1.50     5.63     0.75     6.75        1    44.61
  STMSUR02460_3    TRAPEZOIDAL          1.50     5.63     0.75     6.75        1    50.23
  STMSUR02460_4    TRAPEZOIDAL          1.50     5.63     0.75     6.75        1    43.86
  STMSUR05464      TRAPEZOIDAL          1.50     5.63     0.75     6.75        1   155.68
  STMSUR05484      TRAPEZOIDAL          1.50     5.63     0.75     6.75        1    81.31
  STMSUR05486      TRAPEZOIDAL          1.50     5.63     0.75     6.75        1    40.68
  STMSUR05504      TRAPEZOIDAL          1.50     5.63     0.75     6.75        1    39.15
  STMSUR05506      TRAPEZOIDAL          1.50     5.63     0.75     6.75        1    24.00
  STMSUR05510      TRAPEZOIDAL          5.00    59.95     2.46    21.99        1  2588.29
  STMSUR05515      TRAPEZOIDAL          5.00    53.75     2.33    20.75        1  1457.39
  STMSUR05516      TRAPEZOIDAL          5.00    53.75     2.33    20.75        1  1212.25
  STMSUR05519      TRAPEZOIDAL          1.50     5.63     0.75     6.75        1    28.89
  STMSUR05527      TRAPEZOIDAL          1.50     5.63     0.75     6.75        1    62.23
  STMSUR05529      TRAPEZOIDAL          4.50    43.88     2.10    18.75        1   582.81
  STMSUR05539      TRAPEZOIDAL          1.50     5.63     0.75     6.75        1    18.12
  STMSUR05543      TRAPEZOIDAL          1.50     5.63     0.75     6.75        1    13.89
  STMSUR05544      TRAPEZOIDAL          1.50     5.63     0.75     6.75        1    10.93
  STMSUR05545      TRAPEZOIDAL          1.50     5.63     0.75     6.75        1    10.89
  STMSUR05547      TRAPEZOIDAL          1.50     5.63     0.75     6.75        1    32.32
  STMSUR05575      TRAPEZOIDAL          1.50     5.63     0.75     6.75        1    25.06
  STMSUR05578      TRAPEZOIDAL          1.50     5.63     0.75     6.75        1    25.73
  STMSUR05579      TRAPEZOIDAL          1.50     5.63     0.75     6.75        1    45.86
  STMSUR05580      TRAPEZOIDAL          1.50     5.63     0.75     6.75        1    16.55
  STMSUR05594      TRAPEZOIDAL          1.50     5.63     0.75     6.75        1    17.80
  STMSUR05598      TRAPEZOIDAL          4.50    43.88     2.10    18.75        1   495.59
  STMSUR05599      TRAPEZOIDAL          3.00    20.25     1.43    12.75        1   207.12
  STMSUR05613      TRAPEZOIDAL          1.50     5.63     0.75     6.75        1    22.97
  STMSUR05616_2    TRAPEZOIDAL          1.50     5.63     0.75     6.75        1    31.82
  STMSUR05619      TRAPEZOIDAL          1.50     5.63     0.75     6.75        1    32.59
  STMSUR05621      TRAPEZOIDAL          1.50     5.63     0.75     6.75        1    25.83
  STMSUR05636      TRAPEZOIDAL          1.50     5.63     0.75     6.75        1    32.58
  STMSUR05637      TRAPEZOIDAL          1.50     5.63     0.75     6.75        1    33.88
  STMSUR05638      TRAPEZOIDAL          1.50     5.63     0.75     6.75        1    30.98
  STMSUR05639      TRAPEZOIDAL          3.00    20.25     1.43    12.75        1   301.05
  STMSUR05644      TRAPEZOIDAL          1.50     5.63     0.75     6.75        1    27.94
  STMSUR05798      TRAPEZOIDAL          1.50     5.63     0.75     6.75        1    37.38
  STMSUR05835      TRAPEZOIDAL          1.50     5.63     0.75     6.75        1    23.01
  STMSUR05836      TRAPEZOIDAL          1.50     5.63     0.75     6.75        1    18.49
  STMSUR05837_1    TRAPEZOIDAL          1.50     5.63     0.75     6.75        1    21.06
  STMSUR05837_3    TRAPEZOIDAL          1.50     5.63     0.75     6.75        1    65.98
  STMSUR05837_4    TRAPEZOIDAL          3.00    20.25     1.43    12.75        1    11.54
  STMSUR05842      TRAPEZOIDAL          1.50     5.63     0.75     6.75        1    27.05
  STMSUR05851_1    TRAPEZOIDAL          1.50     5.63     0.75     6.75        1    90.89
  STMSUR05851_2    TRAPEZOIDAL          1.50     5.63     0.75     6.75        1    56.32
  STMSUR05852      TRAPEZOIDAL          1.50     5.63     0.75     6.75        1    17.28
  STMSUR05853      TRAPEZOIDAL          1.50     5.63     0.75     6.75        1    60.26
  STMSUR05854_1    TRAPEZOIDAL          1.00     2.75     0.53     4.75        1     1.66
  STMSUR05854_2    TRAPEZOIDAL          1.50     5.63     0.75     6.75        1    65.48
  STMSUR05855      TRAPEZOIDAL          1.50     5.63     0.75     6.75        1     7.80
  STMSUR05856      TRAPEZOIDAL          1.50     5.63     0.75     6.75        1    47.15
  STMSUR05858      TRAPEZOIDAL          1.50     5.63     0.75     6.75        1    37.33
  STMSUR05859      TRAPEZOIDAL          1.50     5.63     0.75     6.75        1    32.27
  STMSUR05863      TRAPEZOIDAL          1.50     5.63     0.75     6.75        1    35.46
  STMSUR05864      TRAPEZOIDAL          1.50     5.63     0.75     6.75        1    24.51
  STMSUR05865      TRAPEZOIDAL          1.50     5.63     0.75     6.75        1    47.80
  STMSUR05866      TRAPEZOIDAL          1.50     5.63     0.75     6.75        1    20.24
  STMSUR05867      TRAPEZOIDAL          3.00    20.25     1.43    12.75        1   186.59
  STMSUR05868_1    TRAPEZOIDAL          3.00    20.25     1.43    12.75        1   186.66
  STMSUR05868_2    TRAPEZOIDAL          3.00    20.25     1.43    12.75        1   117.79
  STMSUR05869      TRAPEZOIDAL          3.00    20.25     1.43    12.75        1   194.03
  STMSUR05870      TRAPEZOIDAL          1.50     5.63     0.75     6.75        1    41.60
  STMSUR06157      TRAPEZOIDAL          4.50    43.88     2.10    18.75        1   503.12
  STMSUR06159      TRAPEZOIDAL          1.50     5.63     0.75     6.75        1    32.15
  STMSUR06160      TRAPEZOIDAL          3.00    20.25     1.43    12.75        1   507.31
  STMSUR06161      TRAPEZOIDAL          1.50     5.63     0.75     6.75        1    65.77
  STMSUR06162      TRAPEZOIDAL          1.50     5.63     0.75     6.75        1    49.82
  STMSUR06163      TRAPEZOIDAL          1.50     5.63     0.75     6.75        1    58.08
  STMSUR06164      TRAPEZOIDAL          1.50     5.63     0.75     6.75        1    27.88
  STMSUR06165      TRAPEZOIDAL          1.50     5.63     0.75     6.75        1    45.44
  STMSUR06166      TRAPEZOIDAL          1.50     5.63     0.75     6.75        1    18.30
  STMSUR06167      TRAPEZOIDAL          1.50     5.63     0.75     6.75        1    46.59
  STMSUR06172      TRAPEZOIDAL          5.00    53.75     2.33    20.75        1  1761.95
  STMSUR06173      TRAPEZOIDAL          5.00    53.75     2.33    20.75        1   871.90
  STMSUR06174_1    TRAPEZOIDAL          1.50     5.63     0.75     6.75        1    30.34
  STMSUR06174_2    TRAPEZOIDAL          1.50     5.63     0.75     6.75        1    42.13
  STMSUR06175      TRAPEZOIDAL          1.50     5.63     0.75     6.75        1    34.51
  STMSUR06176      TRAPEZOIDAL          5.00    53.75     2.33    20.75        1   159.09
  STMSUR06177      TRAPEZOIDAL          1.50     5.63     0.75     6.75        1    86.91
  STMSUR06191      TRAPEZOIDAL          1.50     5.63     0.75     6.75        1    37.62
  STMSUR06192      TRAPEZOIDAL          3.00    20.25     1.43    12.75        1   217.30
  STMSUR06193      TRAPEZOIDAL          1.50     5.63     0.75     6.75        1   106.15
  STMSUR06194      TRAPEZOIDAL          1.50     5.63     0.75     6.75        1    15.02
  STMSUR06195      TRAPEZOIDAL          1.50     5.63     0.75     6.75        1    59.72
  STMSUR06196      TRAPEZOIDAL          1.50     5.63     0.75     6.75        1    86.52
  STMSUR06197      TRAPEZOIDAL          1.50     5.63     0.75     6.75        1    89.32
  STMSUR06198      TRAPEZOIDAL          1.50     5.63     0.75     6.75        1    69.17
  STMSUR06199      TRAPEZOIDAL          1.50     5.63     0.75     6.75        1    48.12
  STMSUR06200      TRAPEZOIDAL          1.50     5.63     0.75     6.75        1    63.32
  STMSUR06201      TRAPEZOIDAL          1.50     5.63     0.75     6.75        1    33.54
  STMSUR06204      TRAPEZOIDAL          1.50     5.63     0.75     6.75        1    31.93
  STMSUR06206      TRAPEZOIDAL          1.50     5.63     0.75     6.75        1    42.37
  STMSUR06207      TRAPEZOIDAL          1.50     5.63     0.75     6.75        1   109.13
  STMSUR06209      TRAPEZOIDAL          1.50     5.63     0.75     6.75        1    44.97
  STMSUR06210      TRAPEZOIDAL          1.50     5.63     0.75     6.75        1    34.81
  STMSUR06211      TRAPEZOIDAL          1.50     5.63     0.75     6.75        1    12.01
  STMSUR06213      TRAPEZOIDAL          1.50     5.63     0.75     6.75        1    46.45
  STMSUR06216      TRAPEZOIDAL          5.00    53.75     2.33    20.75        1  1412.59
  STMSUR06218      TRAPEZOIDAL          1.50     5.63     0.75     6.75        1    30.09
  STMSUR06219      TRAPEZOIDAL          5.00    53.75     2.33    20.75        1  1425.17
  STMSUR06220      TRAPEZOIDAL          5.00    53.75     2.33    20.75        1  1509.48
  STMSUR06221      TRAPEZOIDAL          5.00    53.75     2.33    20.75        1  1322.14
  STMSUR06222      TRAPEZOIDAL          1.50     5.63     0.75     6.75        1    27.74
  STMSUR06223      TRAPEZOIDAL          3.00    20.25     1.43    12.75        1   204.91
  STMSUR06224      TRAPEZOIDAL          3.00    20.25     1.43    12.75        1    62.53
  STMSUR06225      TRAPEZOIDAL          1.50     5.63     0.75     6.75        1    38.81
  STMSUR06226      TRAPEZOIDAL          1.50     5.63     0.75     6.75        1    20.65
  STMSUR06227      TRAPEZOIDAL          1.50     5.63     0.75     6.75        1    41.31
  STMSUR06229      TRAPEZOIDAL          5.00    59.95     2.46    21.99        1  1172.79
  STMSUR06230      TRAPEZOIDAL          1.50     5.63     0.75     6.75        1    32.43
  
  
  ****************
  Transect Summary
  ****************

  Transect Transect1
  Area:  
              0.0011     0.0044     0.0085     0.0134     0.0189 
              0.0252     0.0321     0.0398     0.0482     0.0573 
              0.0670     0.0775     0.0887     0.1007     0.1133 
              0.1266     0.1406     0.1554     0.1708     0.1870 
              0.2038     0.2214     0.2396     0.2586     0.2783 
              0.2987     0.3198     0.3416     0.3641     0.3873 
              0.4112     0.4359     0.4612     0.4872     0.5140 
              0.5414     0.5696     0.5985     0.6280     0.6583 
              0.6893     0.7210     0.7534     0.7865     0.8203 
              0.8549     0.8901     0.9260     0.9627     1.0000 
  Hrad:  
              0.0185     0.0428     0.0704     0.0956     0.1194 
              0.1421     0.1641     0.1855     0.2066     0.2273 
              0.2478     0.2680     0.2881     0.3081     0.3279 
              0.3477     0.3673     0.3869     0.4065     0.4259 
              0.4454     0.4647     0.4841     0.5034     0.5227 
              0.5419     0.5612     0.5804     0.5996     0.6187 
              0.6379     0.6570     0.6762     0.6953     0.7144 
              0.7335     0.7526     0.7716     0.7907     0.8098 
              0.8288     0.8479     0.8669     0.8859     0.9050 
              0.9240     0.9430     0.9620     0.9810     1.0000 
  Width: 
              0.0607     0.1004     0.1191     0.1379     0.1566 
              0.1753     0.1941     0.2128     0.2316     0.2503 
              0.2691     0.2878     0.3065     0.3253     0.3440 
              0.3628     0.3815     0.4002     0.4190     0.4377 
              0.4565     0.4752     0.4940     0.5127     0.5314 
              0.5502     0.5689     0.5877     0.6064     0.6252 
              0.6439     0.6626     0.6814     0.7001     0.7189 
              0.7376     0.7564     0.7751     0.7938     0.8126 
              0.8313     0.8501     0.8688     0.8875     0.9063 
              0.9250     0.9438     0.9625     0.9813     1.0000 

  Transect TransectOverflow
  Area:  
              0.0198     0.0396     0.0594     0.0792     0.0990 
              0.1188     0.1387     0.1585     0.1784     0.1982 
              0.2181     0.2380     0.2579     0.2778     0.2977 
              0.3176     0.3375     0.3574     0.3774     0.3973 
              0.4173     0.4373     0.4572     0.4772     0.4972 
              0.5172     0.5372     0.5573     0.5773     0.5973 
              0.6174     0.6374     0.6575     0.6776     0.6977 
              0.7178     0.7379     0.7580     0.7781     0.7982 
              0.8184     0.8385     0.8587     0.8788     0.8990 
              0.9192     0.9394     0.9596     0.9798     1.0000 
  Hrad:  
              0.0220     0.0439     0.0657     0.0875     0.1091 
              0.1306     0.1521     0.1735     0.1948     0.2160 
              0.2371     0.2581     0.2791     0.3000     0.3207 
              0.3415     0.3621     0.3826     0.4031     0.4235 
              0.4438     0.4640     0.4841     0.5042     0.5242 
              0.5441     0.5639     0.5837     0.6033     0.6230 
              0.6425     0.6619     0.6813     0.7006     0.7199 
              0.7390     0.7581     0.7771     0.7961     0.8150 
              0.8338     0.8525     0.8712     0.8898     0.9083 
              0.9268     0.9452     0.9635     0.9818     1.0000 
  Width: 
              0.9785     0.9789     0.9793     0.9798     0.9802 
              0.9807     0.9811     0.9815     0.9820     0.9824 
              0.9829     0.9833     0.9837     0.9842     0.9846 
              0.9851     0.9855     0.9859     0.9864     0.9868 
              0.9873     0.9877     0.9881     0.9886     0.9890 
              0.9895     0.9899     0.9903     0.9908     0.9912 
              0.9916     0.9921     0.9925     0.9930     0.9934 
              0.9938     0.9943     0.9947     0.9952     0.9956 
              0.9960     0.9965     0.9969     0.9974     0.9978 
              0.9982     0.9987     0.9991     0.9996     1.0000 
  
  
  ****************
  Analysis Options
  ****************
  Flow Units ............... CMS
  Process Models:
    Rainfall/Runoff ........ YES
    RDII ................... NO
    Snowmelt ............... NO
    Groundwater ............ YES
    Flow Routing ........... YES
    Ponding Allowed ........ YES
    Water Quality .......... NO
  Infiltration Method ...... GREEN_AMPT
  Flow Routing Method ...... DYNWAVE
  Surcharge Method ......... EXTRAN
  Starting Date ............ 01/03/2001 19:25:00
  Ending Date .............. 01/05/2001 03:00:00
  Antecedent Dry Days ...... 0.0
  Report Time Step ......... 00:05:00
  Wet Time Step ............ 00:05:00
  Dry Time Step ............ 00:05:00
  Routing Time Step ........ 5.00 sec
  Variable Time Step ....... YES
  Maximum Trials ........... 8
  Number of Threads ........ 2
  Head Tolerance ........... 0.001500 m
  
  
  *********************
  Rainfall File Summary
  *********************
  Station    First        Last         Recording   Periods    Periods    Periods
  ID         Date         Date         Frequency  w/Precip    Missing    Malfunc.
  -------------------------------------------------------------------------------
  
  
  ERROR 317: cannot open rainfall data file \\mainfile-van\Projects\Active\3000714_DNV_SWMM\Model\PCSWMM\AdditionalWork_Scen5_ExDSB\timeseries\DN25_SCALING_200yr_RG_file.dat.

  Analysis begun on:  Wed Jun 24 06:46:34 2026
  Analysis ended on:  Wed Jun 24 06:46:37 2026
  Total elapsed time: 00:00:03