
  EPA STORM WATER MANAGEMENT MODEL - VERSION 5.2 (Build 5.2.4)
  ------------------------------------------------------------

  WARNING 04: minimum elevation drop used for Conduit SMA4270
  WARNING 04: minimum elevation drop used for Conduit SMA6729
  WARNING 02: maximum depth increased for Node SMH275
  WARNING 02: maximum depth increased for Node SMH744
  WARNING 02: maximum depth increased for Node SMH905
  
  ****************
  Analysis Options
  ****************
  Flow Units ............... LPS
  Process Models:
    Rainfall/Runoff ........ NO
    RDII ................... NO
    Snowmelt ............... NO
    Groundwater ............ NO
    Flow Routing ........... YES
    Ponding Allowed ........ NO
    Water Quality .......... NO
  Flow Routing Method ...... DYNWAVE
  Surcharge Method ......... EXTRAN
  Starting Date ............ 01/01/2002 00:00:00
  Ending Date .............. 01/01/2002 00:00:00
  Antecedent Dry Days ...... 5.0
  Report Time Step ......... 00:05:00
  Routing Time Step ........ 300.00 sec
  Variable Time Step ....... YES
  Maximum Trials ........... 8
  Number of Threads ........ 1
  Head Tolerance ........... 0.001524 m
  
  
  **************************        Volume        Volume
  Flow Routing Continuity        hectare-m      10^6 ltr
  **************************     ---------     ---------
  Dry Weather Inflow .......         1.107        11.073
  Wet Weather Inflow .......         0.000         0.000
  Groundwater Inflow .......         0.000         0.000
  RDII Inflow ..............         0.000         0.000
  External Inflow ..........         0.000         0.000
  External Outflow .........         1.038        10.383
  Flooding Loss ............         0.000         0.001
  Evaporation Loss .........         0.000         0.000
  Exfiltration Loss ........         0.000         0.000
  Initial Stored Volume ....         0.001         0.008
  Final Stored Volume ......         0.057         0.569
  Continuity Error (%) .....         1.147
  
  
  *************************
  Highest Continuity Errors
  *************************
  Node SCH3 (20.06%)
  Node SMH502 (15.65%)
  Node SCH8 (9.44%)
  Node SCH6 (8.95%)
  Node SMH1282 (8.48%)
  
  
  ***************************
  Time-Step Critical Elements
  ***************************
  Link SMA8207 (99.85%)
  
  
  ********************************
  Highest Flow Instability Indexes
  ********************************
  Link SMA6733 (18)
  Link SMA6729 (13)
  Link SMA6730 (8)
  Link SMA6731 (5)
  Link SMA3201 (4)
  
  
  *********************************
  Most Frequent Nonconverging Nodes
  *********************************
  Node SMH1284 (96.45%)
  Node SOUT1 (96.45%)
  Node SCH4 (73.21%)
  Node SCH1 (64.22%)
  Node SCH2 (44.46%)
  
  
  *************************
  Routing Time Step Summary
  *************************
  Minimum Time Step           :     0.06 sec
  Average Time Step           :     0.71 sec
  Maximum Time Step           :     6.99 sec
  % of Time in Steady State   :     0.00
  Average Iterations per Step :     7.89
  % of Steps Not Converging   :    96.45
  Time Step Frequencies       :
     300.000 - 83.462 sec      :     0.00 %
     83.462 - 23.220 sec      :     0.00 %
     23.220 -  6.460 sec      :     0.00 %
      6.460 -  1.797 sec      :     0.11 %
      1.797 -  0.500 sec      :    99.89 %
  
  
  ******************
  Node Depth Summary
  ******************
  
  ---------------------------------------------------------------------------------
                                 Average  Maximum  Maximum  Time of Max    Reported
                                   Depth    Depth      HGL   Occurrence   Max Depth
  Node                 Type       Meters   Meters   Meters  days hr:min      Meters
  ---------------------------------------------------------------------------------
  SCH1                 JUNCTION     2.50   117.34   125.09     0  20:34       29.63
  SCH10                JUNCTION     1.50    46.35    51.57     0  12:15       29.11
  SCH2                 JUNCTION     2.32    58.38    62.81     0  01:29       42.72
  SCH3                 JUNCTION     0.85   308.36   312.94     0  12:05       32.26
  SCH4                 JUNCTION    10.71    69.78    99.66     0  00:51       19.70
  SCH5                 JUNCTION     1.11   103.79   112.81     0  13:02       28.67
  SCH6                 JUNCTION     1.49   124.39   132.84     1  13:47       73.90
  SCH7                 JUNCTION     0.51    29.75    35.95     0  11:13        5.53
  SCH8                 JUNCTION     0.69    41.06    47.10     0  10:29       14.93
  SCH9                 JUNCTION     1.47    41.15    46.37     0  13:13       23.29
  SMA1322              JUNCTION     0.04     0.05    13.24     1  10:00        0.05
  SMH1                 JUNCTION     0.03     0.04    13.05     0  12:20        0.04
  SMH10                JUNCTION     0.00     0.00     9.45     1  10:00        0.00
  SMH100               JUNCTION     0.03     0.03    13.00     1  13:00        0.03
  SMH1000              JUNCTION     0.02     0.03    39.61     1  10:00        0.03
  SMH1001              JUNCTION     0.02     0.03    39.98     1  10:00        0.03
  SMH1002              JUNCTION     0.02     0.02    40.03     1  10:00        0.02
  SMH1003              JUNCTION     0.01     0.01    40.36     1  10:00        0.01
  SMH1004              JUNCTION     0.02     0.02    40.63     1  10:00        0.02
  SMH1005              JUNCTION     0.01     0.01    40.96     1  10:00        0.01
  SMH1006              JUNCTION     0.01     0.01    41.07     1  10:00        0.01
  SMH1007              JUNCTION     0.01     0.01    42.37     1  09:45        0.01
  SMH1008              JUNCTION     0.01     0.01    39.31     1  10:00        0.01
  SMH1009              JUNCTION     0.02     0.03    36.32     1  10:00        0.03
  SMH101               JUNCTION     0.03     0.03    13.43     1  13:00        0.03
  SMH1010              JUNCTION     0.02     0.03    33.86     1  10:00        0.03
  SMH1011              JUNCTION     0.03     0.04    29.82     1  10:00        0.04
  SMH1012              JUNCTION     0.04     0.05    26.90     1  10:00        0.05
  SMH1013              JUNCTION     0.03     0.04    25.70     1  10:00        0.04
  SMH1014              JUNCTION     0.02     0.02    37.91     1  10:00        0.02
  SMH1015              JUNCTION     0.03     0.04    30.25     1  10:00        0.04
  SMH1016              JUNCTION     0.03     0.04    30.64     1  10:00        0.04
  SMH1016_1            JUNCTION     0.03     0.04    30.47     1  10:00        0.04
  SMH1018              JUNCTION     0.01     0.02    36.53     1  10:00        0.02
  SMH1019              JUNCTION     0.01     0.01    38.08     1  10:00        0.01
  SMH102               JUNCTION     0.02     0.03    13.66     1  13:00        0.03
  SMH1020              JUNCTION     0.01     0.01    36.95     1  10:00        0.01
  SMH1021              JUNCTION     0.00     0.01    39.02     0  09:58        0.01
  SMH1022              JUNCTION     0.01     0.01    34.92     1  10:00        0.01
  SMH1024              JUNCTION     0.01     0.01    35.11     1  10:00        0.01
  SMH1025              JUNCTION     0.01     0.01    37.79     1  10:00        0.01
  SMH1026              JUNCTION     0.04     0.06    38.28     1  10:00        0.06
  SMH1027              JUNCTION     0.01     0.02    38.49     1  10:00        0.02
  SMH1028              JUNCTION     0.01     0.02    38.84     1  10:00        0.02
  SMH1029              JUNCTION     0.01     0.01    39.16     1  09:54        0.01
  SMH102_1             JUNCTION     0.02     0.03    13.68     0  13:00        0.03
  SMH102_2             JUNCTION     0.01     0.02    14.02     1  12:10        0.02
  SMH102_3             JUNCTION     0.01     0.02    14.17     1  12:09        0.02
  SMH102_4             JUNCTION     0.01     0.02    14.32     1  12:04        0.02
  SMH102_5             JUNCTION     0.01     0.02    14.47     0  12:02        0.02
  SMH103               JUNCTION     0.02     0.03    14.13     0  15:50        0.03
  SMH1030              JUNCTION     0.01     0.01    39.11     1  10:00        0.01
  SMH1031              JUNCTION     0.01     0.01    39.44     1  10:00        0.01
  SMH1032              JUNCTION     0.01     0.01    39.79     0  09:58        0.01
  SMH1033              JUNCTION     0.03     0.05    38.62     1  10:00        0.05
  SMH1034              JUNCTION     0.03     0.05    39.11     1  10:00        0.05
  SMH1035              JUNCTION     0.01     0.02    39.41     1  10:00        0.02
  SMH1036              JUNCTION     0.01     0.02    39.71     1  10:00        0.02
  SMH1037              JUNCTION     0.01     0.02    40.06     1  10:00        0.02
  SMH1038              JUNCTION     0.01     0.01    40.44     1  10:00        0.01
  SMH1039              JUNCTION     0.00     0.01    40.63     0  09:56        0.01
  SMH103_1             JUNCTION     0.00     0.00    15.29     0  00:00        0.00
  SMH104               JUNCTION     0.04     0.05    11.24     1  18:08        0.05
  SMH1040              JUNCTION     0.01     0.01    40.70     0  10:00        0.01
  SMH1041              JUNCTION     0.02     0.02    40.73     1  10:00        0.02
  SMH1042              JUNCTION     0.02     0.02    41.12     1  10:00        0.02
  SMH1043              JUNCTION     0.01     0.01    41.58     1  10:00        0.01
  SMH1044              JUNCTION     0.00     0.01    41.85     0  09:58        0.01
  SMH1045              JUNCTION     0.01     0.02    41.59     1  10:00        0.02
  SMH1046              JUNCTION     0.01     0.02    42.05     1  09:50        0.02
  SMH1047              JUNCTION     0.01     0.01    42.51     1  10:00        0.01
  SMH1048              JUNCTION     0.01     0.01    42.98     1  10:00        0.01
  SMH1049              JUNCTION     0.00     0.01    43.41     1  10:00        0.01
  SMH105               JUNCTION     0.06     0.07    11.07     1  13:01        0.07
  SMH1050              JUNCTION     0.01     0.01    42.64     1  10:00        0.01
  SMH1051              JUNCTION     0.01     0.01    42.08     1  10:00        0.01
  SMH1052              JUNCTION     0.01     0.02    41.62     1  10:00        0.02
  SMH1053              JUNCTION     0.01     0.02    41.13     1  10:00        0.02
  SMH1054              JUNCTION     0.01     0.01    41.41     0  09:40        0.01
  SMH1055              JUNCTION     0.01     0.01    42.34     0  09:59        0.01
  SMH1056              JUNCTION     0.01     0.01    41.91     1  10:00        0.01
  SMH1057              JUNCTION     0.01     0.02    41.46     1  10:00        0.02
  SMH1058              JUNCTION     0.01     0.02    41.08     1  10:00        0.02
  SMH1059              JUNCTION     0.01     0.02    40.85     1  10:00        0.02
  SMH106               JUNCTION     0.01     0.02    11.15     0  13:11        0.02
  SMH1060              JUNCTION     0.02     0.03    40.37     1  10:00        0.03
  SMH1061              JUNCTION     0.03     0.04    39.64     1  10:00        0.04
  SMH1062              JUNCTION     0.02     0.03    40.05     1  10:00        0.03
  SMH1063              JUNCTION     0.02     0.02    40.37     1  10:00        0.02
  SMH1064              JUNCTION     0.00     0.01    38.96     0  09:59        0.01
  SMH1065              JUNCTION     0.01     0.01    38.81     1  10:00        0.01
  SMH1066              JUNCTION     0.01     0.01    38.60     1  10:00        0.01
  SMH1067              JUNCTION     0.01     0.01    40.36     1  09:27        0.01
  SMH1068              JUNCTION     0.01     0.01    40.84     1  09:05        0.01
  SMH1069              JUNCTION     0.00     0.01    40.54     0  10:00        0.01
  SMH107               JUNCTION     0.03     0.04    11.01     1  18:03        0.04
  SMH1070              JUNCTION     0.03     0.06    39.13     0  09:18        0.06
  SMH1071              JUNCTION     0.04     0.08    39.54     1  09:10        0.08
  SMH1072              JUNCTION     0.04     0.08    40.01     1  07:12        0.08
  SMH1073              JUNCTION     0.02     0.04    37.76     0  09:40        0.04
  SMH1074              JUNCTION     0.00     0.01    38.02     0  09:58        0.01
  SMH1075              JUNCTION     0.02     0.04    33.27     0  09:41        0.04
  SMH1076              JUNCTION     0.03     0.05    29.93     0  09:41        0.05
  SMH1077              JUNCTION     0.00     0.00    30.11     0  10:00        0.00
  SMH1078              JUNCTION     0.03     0.05    28.08     0  09:42        0.05
  SMH1079              JUNCTION     0.01     0.01    28.36     0  10:00        0.01
  SMH108               JUNCTION     0.00     0.00    10.27     0  00:00        0.00
  SMH1080              JUNCTION     0.04     0.07    26.77     0  09:42        0.07
  SMH1081              JUNCTION     0.04     0.08    26.28     0  09:45        0.08
  SMH1082              JUNCTION     0.03     0.05    25.70     0  09:45        0.05
  SMH1083              JUNCTION     0.01     0.02    26.98     1  10:00        0.02
  SMH1084              JUNCTION     0.01     0.01    32.52     1  10:00        0.01
  SMH1085              JUNCTION     0.00     0.00    16.18     1  09:29        0.00
  SMH1085_1            JUNCTION     0.00     0.00    19.27     0  00:00        0.00
  SMH1086              JUNCTION     0.00     0.00    14.88     0  09:58        0.00
  SMH1088              JUNCTION     0.00     0.00    17.32     1  09:45        0.00
  SMH1089              JUNCTION     0.01     0.01    13.45     0  10:00        0.01
  SMH109               JUNCTION     0.01     0.02    12.21     0  14:54        0.02
  SMH1092              JUNCTION     0.00     0.01    14.01     1  10:00        0.01
  SMH1093              JUNCTION     0.01     0.01    15.41     1  10:00        0.01
  SMH1094              JUNCTION     0.01     0.01    15.83     1  10:00        0.01
  SMH1095              JUNCTION     0.01     0.01    16.29     1  10:00        0.01
  SMH1097              JUNCTION     0.01     0.01    13.74     1  10:00        0.01
  SMH1098              JUNCTION     0.01     0.01    14.49     1  10:00        0.01
  SMH1099              JUNCTION     0.01     0.01    16.38     1  10:00        0.01
  SMH11                JUNCTION     0.00     0.00     9.71     1  10:00        0.00
  SMH110               JUNCTION     0.01     0.01    12.40     0  12:36        0.01
  SMH1100              JUNCTION     0.01     0.01    17.26     1  10:00        0.01
  SMH1101              JUNCTION     0.01     0.01    17.04     1  10:00        0.01
  SMH1102              JUNCTION     0.01     0.01    17.19     1  10:00        0.01
  SMH1103              JUNCTION     0.00     0.01    18.72     1  09:15        0.01
  SMH1104              JUNCTION     0.01     0.01    19.05     1  09:05        0.01
  SMH1106              JUNCTION     0.03     0.05    13.28     1  10:00        0.05
  SMH1107              JUNCTION     0.02     0.02    14.36     1  10:00        0.02
  SMH1108              JUNCTION     0.02     0.02    14.65     1  10:00        0.02
  SMH1109              JUNCTION     0.01     0.02    15.08     1  10:00        0.02
  SMH111               JUNCTION     0.01     0.01    12.86     0  14:26        0.01
  SMH1110              JUNCTION     0.01     0.02    15.55     1  10:00        0.02
  SMH1111              JUNCTION     0.01     0.01    15.82     1  10:00        0.01
  SMH1112              JUNCTION     0.01     0.01    17.04     1  10:00        0.01
  SMH1112_1            JUNCTION     0.01     0.01    18.51     1  09:08        0.01
  SMH1113              JUNCTION     0.00     0.00    20.91     1  10:00        0.00
  SMH1114              JUNCTION     0.00     0.01    22.51     0  09:14        0.01
  SMH1115              JUNCTION     0.01     0.01    21.56     1  10:00        0.01
  SMH1116              JUNCTION     0.00     0.00    22.20     0  10:00        0.00
  SMH1117              JUNCTION     0.00     0.00    24.54     1  09:48        0.00
  SMH1118              JUNCTION     0.01     0.01    18.34     1  10:00        0.01
  SMH1119              JUNCTION     0.01     0.01    17.02     1  10:00        0.01
  SMH112               JUNCTION     0.01     0.01    16.01     1  10:00        0.01
  SMH1120              JUNCTION     0.01     0.01    19.13     1  10:00        0.01
  SMH1121              JUNCTION     0.00     0.00    17.07     1  09:45        0.00
  SMH1122              JUNCTION     0.00     0.00    15.66     0  09:46        0.00
  SMH1123              JUNCTION     0.00     0.00    18.50     1  10:00        0.00
  SMH1124              JUNCTION     0.01     0.01    15.60     1  10:00        0.01
  SMH1125              JUNCTION     0.04     0.06    14.68     1  10:00        0.06
  SMH1125_1            JUNCTION     0.04     0.05    16.25     1  10:00        0.05
  SMH1125_2            JUNCTION     0.01     0.01    16.79     1  10:00        0.01
  SMH1126              JUNCTION     0.04     0.05    17.64     1  10:00        0.05
  SMH1127              JUNCTION     0.04     0.06    17.92     1  10:00        0.06
  SMH1128              JUNCTION     0.01     0.02    19.43     1  10:00        0.02
  SMH1129              JUNCTION     0.01     0.01    20.26     1  10:00        0.01
  SMH113               JUNCTION     0.01     0.01    11.14     0  12:13        0.01
  SMH1130              JUNCTION     0.00     0.01    24.09     1  10:00        0.01
  SMH1131              JUNCTION     0.01     0.01    26.07     1  10:00        0.01
  SMH1132              JUNCTION     0.03     0.04    20.17     1  10:00        0.04
  SMH1133              JUNCTION     0.03     0.05    20.39     1  10:00        0.05
  SMH1134              JUNCTION     0.00     0.00    22.32     1  10:00        0.00
  SMH1135              JUNCTION     0.00     0.00    22.64     1  10:00        0.00
  SMH1136              JUNCTION     0.00     0.00    26.27     0  09:46        0.00
  SMH1137              JUNCTION     0.00     0.00    23.13     0  09:53        0.00
  SMH1138              JUNCTION     0.00     0.00    26.80     0  09:58        0.00
  SMH1139              JUNCTION     0.00     0.00    29.29     0  09:36        0.00
  SMH114               JUNCTION     0.01     0.01     8.29     1  18:06        0.01
  SMH1140              JUNCTION     0.00     0.00    27.65     1  10:00        0.00
  SMH1141              JUNCTION     0.00     0.01    27.59     1  10:00        0.01
  SMH1142              JUNCTION     0.01     0.01    26.88     1  10:00        0.01
  SMH1143              JUNCTION     0.00     0.00    30.01     1  10:00        0.00
  SMH1144              JUNCTION     0.00     0.01    29.69     1  10:00        0.01
  SMH1145              JUNCTION     0.00     0.00    29.95     1  10:00        0.00
  SMH1145_1            JUNCTION     0.00     0.00    30.50     1  10:00        0.00
  SMH1146              JUNCTION     0.02     0.02    33.23     1  10:00        0.02
  SMH1147              JUNCTION     0.01     0.01    35.27     1  10:00        0.01
  SMH1148              JUNCTION     0.02     0.02    35.57     1  10:00        0.02
  SMH1149              JUNCTION     0.01     0.01    39.62     1  10:00        0.01
  SMH115               JUNCTION     0.02     0.02     8.00     0  18:00        0.02
  SMH1150              JUNCTION     0.01     0.01    40.31     1  10:00        0.01
  SMH1151              JUNCTION     0.00     0.01    42.78     1  10:00        0.01
  SMH1152              JUNCTION     0.01     0.01    42.71     1  10:00        0.01
  SMH1153              JUNCTION     0.01     0.01    43.52     1  10:00        0.01
  SMH1154              JUNCTION     0.01     0.01    43.90     1  10:00        0.01
  SMH1155              JUNCTION     0.02     0.02    32.90     1  10:00        0.02
  SMH1156              JUNCTION     0.02     0.03    32.59     1  10:00        0.03
  SMH1157              JUNCTION     0.02     0.03    32.22     1  10:00        0.03
  SMH1158              JUNCTION     0.02     0.03    35.22     1  10:00        0.03
  SMH1159              JUNCTION     0.02     0.03    41.64     0  10:00        0.03
  SMH116               JUNCTION     0.01     0.01     9.81     0  14:07        0.01
  SMH1160              JUNCTION     0.00     0.00    41.11     1  09:37        0.00
  SMH1161              JUNCTION     0.01     0.01    41.47     1  09:21        0.01
  SMH1162              JUNCTION     0.01     0.01    41.97     0  10:00        0.01
  SMH1163              JUNCTION     0.04     0.06    42.49     1  10:00        0.06
  SMH1164              JUNCTION     0.01     0.01    43.86     1  10:00        0.01
  SMH1165              JUNCTION     0.01     0.01    43.60     1  10:00        0.01
  SMH1166              JUNCTION     0.04     0.05    43.28     1  10:00        0.05
  SMH1167              JUNCTION     0.03     0.04    45.63     0  09:53        0.04
  SMH1168              JUNCTION     0.05     0.07    46.00     0  09:59        0.07
  SMH1169              JUNCTION     0.05     0.07    46.01     0  09:58        0.07
  SMH117               JUNCTION     0.02     0.02     9.33     1  12:22        0.02
  SMH1170              JUNCTION     0.03     0.04    44.64     0  09:34        0.04
  SMH1171              JUNCTION     0.03     0.04    44.61     0  09:03        0.04
  SMH1172              JUNCTION     0.03     0.04    44.46     1  09:07        0.04
  SMH1173              JUNCTION     0.02     0.03    44.23     1  09:17        0.03
  SMH1174              JUNCTION     0.03     0.04    43.77     1  10:00        0.04
  SMH1175              JUNCTION     0.03     0.04    43.42     1  10:00        0.04
  SMH1176              JUNCTION     0.02     0.03    43.23     1  10:00        0.03
  SMH1177              JUNCTION     0.05     0.06    42.94     1  10:00        0.06
  SMH1178              JUNCTION     0.00     0.00    44.50     1  10:00        0.00
  SMH1179              JUNCTION     0.00     0.00    45.18     0  00:00        0.00
  SMH118               JUNCTION     0.01     0.02     8.84     1  12:43        0.02
  SMH1180              JUNCTION     0.03     0.04    42.91     1  10:00        0.04
  SMH1181              JUNCTION     0.02     0.03    42.56     1  10:00        0.03
  SMH1182              JUNCTION     0.03     0.04    41.05     1  10:00        0.04
  SMH1183              JUNCTION     0.00     0.01    39.80     1  10:00        0.01
  SMH1184              JUNCTION     0.00     0.01    33.16     1  10:00        0.01
  SMH1185              JUNCTION     0.01     0.01    40.10     1  10:00        0.01
  SMH1186              JUNCTION     0.01     0.01    32.93     1  10:00        0.01
  SMH1187              JUNCTION     0.01     0.01    40.57     1  10:00        0.01
  SMH1188              JUNCTION     0.01     0.01    32.62     1  10:00        0.01
  SMH1189              JUNCTION     0.00     0.01    32.03     1  10:00        0.01
  SMH119               JUNCTION     0.02     0.02     8.32     0  12:34        0.02
  SMH1190              JUNCTION     0.01     0.01    39.95     1  10:00        0.01
  SMH1191              JUNCTION     0.03     0.05    39.49     1  10:00        0.05
  SMH1192              JUNCTION     0.04     0.05    39.03     1  10:00        0.05
  SMH1193              JUNCTION     0.02     0.03    38.61     1  10:00        0.03
  SMH1194              JUNCTION     0.00     0.00    37.05     0  09:57        0.00
  SMH1195              JUNCTION     0.00     0.01    36.81     0  10:00        0.01
  SMH1196              JUNCTION     0.00     0.01    34.01     0  09:58        0.01
  SMH1197              JUNCTION     0.02     0.03    35.54     1  10:00        0.03
  SMH1198              JUNCTION     0.03     0.04    31.73     1  10:00        0.04
  SMH1199              JUNCTION     0.04     0.05    30.44     1  10:00        0.05
  SMH11_1              JUNCTION     0.00     0.00    10.28     1  10:00        0.00
  SMH12                JUNCTION     0.01     0.02     8.63     0  18:00        0.02
  SMH120               JUNCTION     0.02     0.02     8.70     1  10:03        0.02
  SMH1200              JUNCTION     0.05     0.07    28.77     1  10:00        0.07
  SMH1201              JUNCTION     0.02     0.03    28.77     1  10:00        0.03
  SMH1202              JUNCTION     0.01     0.02    29.16     1  09:09        0.02
  SMH1203              JUNCTION     0.01     0.02    29.50     1  10:00        0.02
  SMH1204              JUNCTION     0.01     0.02    29.90     1  10:00        0.02
  SMH1204_1            JUNCTION     0.01     0.01    29.98     1  10:00        0.01
  SMH1205              JUNCTION     0.00     0.00    32.15     0  00:00        0.00
  SMH1205_1            JUNCTION     0.00     0.00    36.96     0  00:00        0.00
  SMH1206              JUNCTION     0.01     0.02    30.10     1  10:00        0.02
  SMH1207              JUNCTION     0.02     0.02    37.22     1  10:00        0.02
  SMH1208              JUNCTION     0.01     0.02    37.73     1  10:00        0.02
  SMH1209              JUNCTION     0.01     0.01    40.08     1  09:56        0.01
  SMH121               JUNCTION     0.01     0.02     9.05     1  10:00        0.02
  SMH1210              JUNCTION     0.01     0.01    40.53     1  09:46        0.01
  SMH1211              JUNCTION     0.00     0.01    40.66     0  09:58        0.01
  SMH1212              JUNCTION     0.04     0.05    39.86     1  10:00        0.05
  SMH1213              JUNCTION     0.01     0.01    41.77     1  10:00        0.01
  SMH1214              JUNCTION     0.00     0.01    42.50     0  09:58        0.01
  SMH1215              JUNCTION     0.01     0.01    42.35     1  10:00        0.01
  SMH1216              JUNCTION     0.01     0.01    42.78     1  10:00        0.01
  SMH1217              JUNCTION     0.01     0.01    41.84     1  10:00        0.01
  SMH1218              JUNCTION     0.01     0.01    42.16     0  10:00        0.01
  SMH1219              JUNCTION     0.01     0.02    39.61     1  10:00        0.02
  SMH122               JUNCTION     0.00     0.00     9.41     1  10:00        0.00
  SMH1220              JUNCTION     0.00     0.00    41.87     0  09:56        0.00
  SMH1221              JUNCTION     0.02     0.02    38.99     1  10:00        0.02
  SMH1222              JUNCTION     0.01     0.01    41.21     1  10:00        0.01
  SMH1223              JUNCTION     0.01     0.01    42.74     1  10:00        0.01
  SMH1224              JUNCTION     0.01     0.01    43.47     1  10:00        0.01
  SMH1225              JUNCTION     0.01     0.01    42.87     1  10:00        0.01
  SMH1226              JUNCTION     0.01     0.02    43.18     1  10:00        0.02
  SMH1227              JUNCTION     0.01     0.01    43.69     1  10:00        0.01
  SMH1228              JUNCTION     0.01     0.01    43.84     1  10:00        0.01
  SMH1229              JUNCTION     0.01     0.01    44.29     1  10:00        0.01
  SMH123               JUNCTION     0.01     0.01     9.45     1  10:00        0.01
  SMH1230              JUNCTION     0.00     0.00    45.11     0  09:31        0.00
  SMH1231              JUNCTION     0.03     0.05    40.23     1  10:00        0.05
  SMH1232              JUNCTION     0.03     0.04    40.63     1  10:00        0.04
  SMH1233              JUNCTION     0.00     0.00    26.15     1  09:23        0.00
  SMH1234              JUNCTION     0.01     0.01    22.86     1  10:00        0.01
  SMH1235              JUNCTION     0.01     0.01    22.39     1  10:00        0.01
  SMH1236              JUNCTION     0.00     0.00    22.42     0  10:00        0.00
  SMH1237              JUNCTION     0.01     0.01    21.94     1  09:16        0.01
  SMH1238              JUNCTION     0.01     0.01    21.89     1  09:26        0.01
  SMH1239              JUNCTION     0.01     0.01    21.62     1  09:31        0.01
  SMH124               JUNCTION     0.02     0.02     7.25     0  12:40        0.02
  SMH1240              JUNCTION     0.01     0.01    21.37     1  09:47        0.01
  SMH1241              JUNCTION     0.01     0.01    21.07     1  09:53        0.01
  SMH1242              JUNCTION     0.01     0.01    20.96     1  09:49        0.01
  SMH1243              JUNCTION     0.00     0.00    21.78     0  10:00        0.00
  SMH1244              JUNCTION     0.00     0.00    28.68     0  10:00        0.00
  SMH1245              JUNCTION     0.01     0.01    20.75     1  10:01        0.01
  SMH1246              JUNCTION     0.01     0.01    20.42     1  10:06        0.01
  SMH1247              JUNCTION     0.04     0.06    19.27     1  10:02        0.06
  SMH1248              JUNCTION     0.04     0.05    19.17     1  10:02        0.05
  SMH1249              JUNCTION     0.04     0.06    19.56     1  10:02        0.06
  SMH125               JUNCTION     0.01     0.01     8.91     0  14:01        0.01
  SMH1250              JUNCTION     0.04     0.06    18.86     1  10:04        0.06
  SMH1251              JUNCTION     0.02     0.03    28.49     1  10:01        0.03
  SMH1252              JUNCTION     0.00     0.00    27.94     0  09:58        0.00
  SMH1253              JUNCTION     0.00     0.00    17.04     0  09:31        0.00
  SMH1254              JUNCTION     0.00     0.00    18.24     0  09:31        0.00
  SMH1255              JUNCTION     0.03     0.04    34.14     0  09:32        0.04
  SMH1256              JUNCTION     0.00     0.00    12.31     0  00:00        0.00
  SMH1257              JUNCTION     0.03     0.03    12.01     0  12:53        0.03
  SMH1258              JUNCTION     0.03     0.04    11.71     0  13:43        0.04
  SMH1259              JUNCTION     0.03     0.04    11.20     0  13:54        0.04
  SMH126               JUNCTION     0.01     0.01     8.50     0  14:34        0.01
  SMH1260              JUNCTION     0.02     0.02    11.75     0  13:49        0.02
  SMH1266              JUNCTION     0.03     0.03     5.81     0  12:51        0.03
  SMH1267              JUNCTION     0.00     0.00     4.37     0  00:00        0.00
  SMH1268              JUNCTION     0.00     0.00     4.73     0  00:00        0.00
  SMH1269              JUNCTION     0.00     0.00     5.04     0  00:00        0.00
  SMH127               JUNCTION     0.05     0.07     7.28     0  18:00        0.07
  SMH1270              JUNCTION     0.00     0.00     5.40     0  00:00        0.00
  SMH1271              JUNCTION     0.01     0.01     7.73     1  15:48        0.01
  SMH1272              JUNCTION     0.01     0.01     8.04     0  12:32        0.01
  SMH1273              JUNCTION     0.01     0.01     5.48     0  09:45        0.01
  SMH1274              JUNCTION     0.04     0.05     0.80     1  10:01        0.05
  SMH1275              JUNCTION     0.04     0.05     0.38     1  10:01        0.05
  SMH1276              JUNCTION     0.04     0.05     0.02     1  10:02        0.05
  SMH1277              JUNCTION     0.05     0.06    -0.02     1  10:05        0.06
  SMH128               JUNCTION     0.05     0.07     7.59     0  18:00        0.07
  SMH1280              JUNCTION     0.01     0.01     9.00     0  12:05        0.01
  SMH1281              JUNCTION     0.03     0.04    -0.49     1  10:05        0.04
  SMH1282              JUNCTION     0.04     0.06    -0.36     0  10:26        0.06
  SMH1283              JUNCTION     0.05     0.07     5.14     0  13:05        0.07
  SMH1284_1            JUNCTION     0.04     0.06    -0.36     0  10:26        0.06
  SMH1285              JUNCTION     0.04     0.06    19.70     1  10:00        0.06
  SMH1285_1            JUNCTION     0.01     0.01    19.77     1  09:34        0.01
  SMH1286              JUNCTION     0.03     0.04     6.19     1  10:00        0.04
  SMH1287              JUNCTION     0.04     0.05     6.29     1  10:00        0.05
  SMH1289              JUNCTION     0.03     0.04     6.44     1  10:01        0.04
  SMH129               JUNCTION     0.02     0.02     8.47     0  13:55        0.02
  SMH1290              JUNCTION     0.03     0.04     6.59     1  10:01        0.04
  SMH1291              JUNCTION     0.01     0.01     5.39     0  19:23        0.01
  SMH1292              JUNCTION     0.04     0.05     6.85     1  13:12        0.05
  SMH1295              JUNCTION     0.04     0.04     6.89     1  13:11        0.04
  SMH1296              JUNCTION     0.05     0.06     6.88     1  13:11        0.06
  SMH1297              JUNCTION     0.00     0.00    21.03     1  09:06        0.00
  SMH13                JUNCTION     0.01     0.01    16.53     0  14:58        0.01
  SMH130               JUNCTION     0.00     0.00     8.79     0  00:00        0.00
  SMH1300              JUNCTION     0.02     0.03    42.48     1  10:00        0.03
  SMH1301              JUNCTION     0.00     0.00    42.96     0  00:00        0.00
  SMH1302              JUNCTION     0.07     0.08     6.96     1  13:09        0.08
  SMH1303              JUNCTION     0.04     0.05    19.09     1  10:03        0.05
  SMH1304              JUNCTION     0.00     0.00    25.31     0  00:00        0.00
  SMH1305              JUNCTION     0.00     0.00    25.69     0  00:00        0.00
  SMH1306              JUNCTION     0.00     0.00    16.57     0  00:00        0.00
  SMH1306_1            JUNCTION     0.00     0.00    16.67     0  00:00        0.00
  SMH1307              JUNCTION     0.00     0.00    15.45     0  00:00        0.00
  SMH1307_1            JUNCTION     0.00     0.00    15.82     0  00:00        0.00
  SMH1308              JUNCTION     0.03     0.03    10.08     0  14:30        0.03
  SMH1309              JUNCTION     0.00     0.01    22.27     1  10:00        0.01
  SMH131               JUNCTION     0.05     0.07     7.12     0  18:00        0.07
  SMH1312              JUNCTION     0.00     0.00    10.70     0  00:00        0.00
  SMH1313              JUNCTION     0.00     0.00    10.80     0  00:00        0.00
  SMH1313_1            JUNCTION     0.00     0.00    10.94     0  00:00        0.00
  SMH1313_2            JUNCTION     0.00     0.00    11.39     0  00:00        0.00
  SMH1314              JUNCTION     0.00     0.00    11.81     0  00:00        0.00
  SMH1315              JUNCTION     0.00     0.01    14.92     0  08:09        0.01
  SMH1316              JUNCTION     0.01     0.01    14.67     1  09:42        0.01
  SMH1317              JUNCTION     0.01     0.01    14.40     1  09:48        0.01
  SMH1318              JUNCTION     0.01     0.02    14.19     1  10:00        0.02
  SMH1319              JUNCTION     0.01     0.02    13.85     1  10:00        0.02
  SMH132               JUNCTION     0.06     0.07     6.78     1  18:03        0.07
  SMH1320              JUNCTION     0.02     0.02    13.76     1  10:00        0.02
  SMH1321              JUNCTION     0.02     0.03    13.60     1  10:00        0.03
  SMH1323              JUNCTION     0.01     0.01    10.72     1  12:30        0.01
  SMH1324              JUNCTION     0.04     0.06    18.65     1  10:05        0.06
  SMH1325              JUNCTION     0.04     0.06    18.68     1  10:05        0.06
  SMH1326              JUNCTION     0.03     0.04     6.45     1  10:00        0.04
  SMH1327              JUNCTION     0.02     0.03     6.80     1  10:00        0.03
  SMH1328              JUNCTION     0.03     0.04    16.89     1  10:04        0.04
  SMH1329              JUNCTION     0.04     0.06    15.52     1  10:04        0.06
  SMH133               JUNCTION     0.06     0.08     6.46     1  18:06        0.08
  SMH1330              JUNCTION     0.04     0.07    14.37     1  10:05        0.07
  SMH1330_1            JUNCTION     0.00     0.01    14.58     1  10:00        0.01
  SMH1331              JUNCTION     0.04     0.06    13.21     1  10:07        0.06
  SMH1331_1            JUNCTION     0.00     0.00    13.28     1  10:00        0.00
  SMH1332              JUNCTION     0.04     0.06    11.41     1  10:07        0.06
  SMH1333              JUNCTION     0.04     0.06    11.32     1  10:07        0.06
  SMH1334              JUNCTION     0.04     0.06    11.01     0  09:52        0.06
  SMH1334_1            JUNCTION     0.00     0.00    11.26     1  10:00        0.00
  SMH1334_2            JUNCTION     0.01     0.01    11.32     0  10:00        0.01
  SMH1335              JUNCTION     0.04     0.07    10.82     0  09:52        0.06
  SMH1336              JUNCTION     0.00     0.00     9.06     0  00:00        0.00
  SMH1337              JUNCTION     0.01     0.01     8.82     1  10:00        0.01
  SMH1338              JUNCTION     0.01     0.01     8.67     1  10:00        0.01
  SMH1339              JUNCTION     0.01     0.01    21.44     1  09:42        0.01
  SMH134               JUNCTION     0.00     0.00     8.90     1  10:00        0.00
  SMH1340              JUNCTION     0.00     0.00    21.51     0  00:00        0.00
  SMH1341              JUNCTION     0.00     0.00    25.54     0  00:00        0.00
  SMH1342              JUNCTION     0.00     0.00    15.87     0  00:00        0.00
  SMH1343              JUNCTION     0.00     0.00    16.39     0  00:00        0.00
  SMH1344              JUNCTION     0.00     0.00    15.66     0  00:00        0.00
  SMH1345              JUNCTION     0.00     0.00    15.43     0  00:00        0.00
  SMH1346              JUNCTION     0.07     0.08    -0.25     1  13:26        0.08
  SMH1347              JUNCTION     0.05     0.05     1.09     1  13:25        0.05
  SMH1348              JUNCTION     0.05     0.06     1.47     1  13:25        0.06
  SMH1349              JUNCTION     0.05     0.06     4.12     1  13:24        0.06
  SMH135               JUNCTION     0.01     0.02     7.07     0  14:02        0.02
  SMH1350              JUNCTION     0.09     0.11     4.61     1  13:23        0.11
  SMH1351              JUNCTION     0.08     0.10     4.74     1  13:21        0.10
  SMH1352              JUNCTION     0.07     0.09     4.78     1  13:21        0.09
  SMH1353              JUNCTION     0.06     0.08     5.54     1  13:21        0.08
  SMH1354              JUNCTION     0.08     0.10     5.81     1  13:19        0.10
  SMH1355              JUNCTION     0.09     0.10     5.84     1  13:17        0.10
  SMH1356              JUNCTION     0.01     0.01     6.27     1  10:00        0.01
  SMH1357              JUNCTION     0.02     0.02     6.91     0  13:27        0.02
  SMH1358              JUNCTION     0.03     0.03     7.20     0  13:24        0.03
  SMH1359              JUNCTION     0.03     0.03     7.67     0  13:19        0.03
  SMH136               JUNCTION     0.01     0.02     6.77     0  14:05        0.02
  SMH1360              JUNCTION     0.02     0.02     7.70     0  13:11        0.02
  SMH1361              JUNCTION     0.02     0.02     8.23     0  13:10        0.02
  SMH1362              JUNCTION     0.01     0.01     8.98     0  13:08        0.01
  SMH1363              JUNCTION     0.02     0.03     9.54     0  13:07        0.03
  SMH1364              JUNCTION     0.01     0.01    10.49     0  13:04        0.01
  SMH1364_1            JUNCTION     0.02     0.03    10.51     0  13:04        0.03
  SMH1364_2            JUNCTION     0.03     0.04    10.89     0  13:00        0.04
  SMH1364_3            JUNCTION     0.04     0.05    11.03     0  00:25        0.05
  SMH1365              JUNCTION     0.04     0.05     6.81     1  18:01        0.05
  SMH137               JUNCTION     0.02     0.02     6.54     0  12:47        0.02
  SMH138               JUNCTION     0.02     0.03     6.52     0  12:49        0.03
  SMH139               JUNCTION     0.02     0.02     5.87     1  18:08        0.02
  SMH14                JUNCTION     0.01     0.01    18.42     0  14:58        0.01
  SMH140               JUNCTION     0.06     0.07     6.07     1  18:08        0.07
  SMH141               JUNCTION     0.03     0.04     7.64     1  10:00        0.04
  SMH142               JUNCTION     0.01     0.01     9.05     1  10:00        0.01
  SMH143               JUNCTION     0.02     0.02     7.79     1  09:10        0.02
  SMH144               JUNCTION     0.02     0.03     7.96     1  09:07        0.03
  SMH144_1             JUNCTION     0.00     0.00     8.57     0  00:00        0.00
  SMH144_2             JUNCTION     0.00     0.00     8.85     0  00:00        0.00
  SMH144_3             JUNCTION     0.00     0.00     9.12     0  00:00        0.00
  SMH144_4             JUNCTION     0.00     0.00     9.30     0  00:00        0.00
  SMH145               JUNCTION     0.02     0.02     6.59     0  13:03        0.02
  SMH145_1             JUNCTION     0.00     0.00     6.71     0  00:00        0.00
  SMH146               JUNCTION     0.02     0.02     6.19     0  13:06        0.02
  SMH146_1             JUNCTION     0.00     0.00     6.49     0  00:00        0.00
  SMH147               JUNCTION     0.02     0.03     5.86     0  14:07        0.03
  SMH148               JUNCTION     0.03     0.03     5.13     0  13:38        0.03
  SMH149               JUNCTION     0.04     0.05     4.44     0  14:06        0.05
  SMH15                JUNCTION     0.01     0.01    19.83     0  15:55        0.01
  SMH150               JUNCTION     0.03     0.03     5.37     0  13:31        0.03
  SMH151               JUNCTION     0.04     0.05     4.15     0  14:36        0.05
  SMH152               JUNCTION     0.04     0.06     4.02     0  14:37        0.06
  SMH153               JUNCTION     0.02     0.02     3.53     1  13:00        0.02
  SMH154               JUNCTION     0.02     0.03     4.17     1  10:00        0.03
  SMH155               JUNCTION     0.00     0.00     4.26     0  00:00        0.00
  SMH155_1             JUNCTION     0.00     0.00     4.36     0  00:00        0.00
  SMH156               JUNCTION     0.02     0.03     5.12     1  10:00        0.03
  SMH157               JUNCTION     0.02     0.03     5.48     1  10:00        0.03
  SMH158               JUNCTION     0.03     0.03     5.68     1  10:00        0.03
  SMH159               JUNCTION     0.02     0.03     5.74     1  10:00        0.03
  SMH16                JUNCTION     0.01     0.02    16.27     0  15:44        0.02
  SMH160               JUNCTION     0.03     0.03     7.38     1  13:00        0.03
  SMH161               JUNCTION     0.00     0.00     7.90     1  10:00        0.00
  SMH161_1             JUNCTION     0.00     0.00     8.06     0  00:00        0.00
  SMH162               JUNCTION     0.01     0.01     7.61     1  10:00        0.01
  SMH163               JUNCTION     0.00     0.00     7.79     1  10:00        0.00
  SMH164               JUNCTION     0.02     0.02     7.50     1  15:49        0.02
  SMH165               JUNCTION     0.01     0.01     7.36     0  14:18        0.01
  SMH166               JUNCTION     0.01     0.02     6.89     1  10:00        0.02
  SMH167               JUNCTION     0.03     0.03     6.21     1  10:00        0.03
  SMH168               JUNCTION     0.02     0.03     6.10     1  10:00        0.03
  SMH169               JUNCTION     0.02     0.03     5.80     1  10:00        0.03
  SMH1698              JUNCTION     0.03     0.05    16.96     1  10:00        0.05
  SMH1699              JUNCTION     0.01     0.01    13.00     1  10:00        0.01
  SMH16_1              JUNCTION     0.00     0.00    16.41     0  00:00        0.00
  SMH17                JUNCTION     0.02     0.02    15.73     0  14:23        0.02
  SMH170               JUNCTION     0.01     0.01    10.05     0  14:07        0.01
  SMH171               JUNCTION     0.01     0.02     9.68     0  15:55        0.02
  SMH172               JUNCTION     0.02     0.02     9.31     1  18:02        0.02
  SMH173               JUNCTION     0.02     0.03     6.83     0  12:44        0.03
  SMH174               JUNCTION     0.02     0.02     6.97     0  12:42        0.02
  SMH175               JUNCTION     0.02     0.03     7.57     0  12:37        0.03
  SMH176               JUNCTION     0.02     0.03     4.75     1  10:00        0.03
  SMH177               JUNCTION     0.02     0.03     4.44     1  10:00        0.03
  SMH178               JUNCTION     0.05     0.06     6.56     1  18:04        0.06
  SMH179               JUNCTION     0.05     0.06     6.54     1  18:06        0.06
  SMH17_1              JUNCTION     0.01     0.02    16.03     0  12:36        0.02
  SMH18                JUNCTION     0.02     0.02    15.04     0  12:55        0.02
  SMH180               JUNCTION     0.00     0.01     7.64     1  10:00        0.01
  SMH180_1             JUNCTION     0.00     0.00     7.89     0  00:00        0.00
  SMH181               JUNCTION     0.05     0.06     6.37     1  18:09        0.06
  SMH182               JUNCTION     0.01     0.01     7.35     1  10:00        0.01
  SMH183               JUNCTION     0.02     0.02     6.77     0  19:08        0.02
  SMH184               JUNCTION     0.10     0.13     6.06     1  13:14        0.13
  SMH185               JUNCTION     0.03     0.03     8.07     1  18:10        0.03
  SMH186               JUNCTION     0.05     0.06     8.28     1  13:03        0.06
  SMH187               JUNCTION     0.04     0.05     8.62     1  13:00        0.05
  SMH188               JUNCTION     0.02     0.02     9.21     1  13:00        0.02
  SMH189               JUNCTION     0.02     0.02     9.47     1  13:00        0.02
  SMH19                JUNCTION     0.01     0.01    15.35     1  10:00        0.01
  SMH190               JUNCTION     0.01     0.01     9.50     1  13:00        0.01
  SMH191               JUNCTION     0.02     0.02     9.51     1  13:00        0.02
  SMH192               JUNCTION     0.01     0.01     9.90     1  13:00        0.01
  SMH193               JUNCTION     0.01     0.01    10.54     0  12:26        0.01
  SMH193_1             JUNCTION     0.00     0.01    10.88     1  10:00        0.01
  SMH193_2             JUNCTION     0.00     0.01    11.08     0  10:00        0.01
  SMH194               JUNCTION     0.02     0.03    10.08     1  13:09        0.03
  SMH195               JUNCTION     0.02     0.03    10.52     1  13:06        0.03
  SMH196               JUNCTION     0.02     0.03    10.75     1  13:03        0.03
  SMH197               JUNCTION     0.02     0.03    11.08     1  13:00        0.03
  SMH198               JUNCTION     0.01     0.01    11.31     1  10:00        0.01
  SMH199               JUNCTION     0.01     0.01    11.56     1  10:00        0.01
  SMH2                 JUNCTION     0.03     0.04    11.99     0  12:38        0.04
  SMH20                JUNCTION     0.02     0.02    14.64     1  18:02        0.02
  SMH200               JUNCTION     0.01     0.01    10.97     1  10:00        0.01
  SMH201               JUNCTION     0.01     0.02    10.53     1  10:00        0.02
  SMH202               JUNCTION     0.02     0.02     9.77     1  10:00        0.02
  SMH203               JUNCTION     0.03     0.03     8.33     0  19:23        0.03
  SMH204               JUNCTION     0.01     0.01     8.68     1  10:00        0.01
  SMH205               JUNCTION     0.01     0.02     8.38     1  10:00        0.02
  SMH206               JUNCTION     0.02     0.02     8.74     1  10:00        0.02
  SMH207               JUNCTION     0.01     0.01     9.16     1  10:00        0.01
  SMH208               JUNCTION     0.02     0.02     6.53     1  19:15        0.02
  SMH209               JUNCTION     0.12     0.14     5.93     1  13:16        0.14
  SMH21                JUNCTION     0.02     0.03    14.11     1  18:04        0.03
  SMH210               JUNCTION     0.02     0.03     7.97     1  10:00        0.03
  SMH2100              JUNCTION     0.02     0.02    11.35     0  13:09        0.02
  SMH2100_1            JUNCTION     0.01     0.01    11.72     0  15:55        0.01
  SMH2101              JUNCTION     0.09     0.11     6.34     0  18:12        0.11
  SMH211               JUNCTION     0.01     0.01     9.04     1  10:00        0.01
  SMH212               JUNCTION     0.01     0.01     9.46     1  10:00        0.01
  SMH213               JUNCTION     0.01     0.02     8.93     1  10:00        0.02
  SMH214               JUNCTION     0.02     0.03     8.71     1  10:00        0.03
  SMH215               JUNCTION     0.01     0.02     6.25     1  10:00        0.02
  SMH216               JUNCTION     0.01     0.01     7.88     1  10:00        0.01
  SMH217               JUNCTION     0.01     0.01     9.20     0  09:36        0.01
  SMH218               JUNCTION     0.00     0.01     7.56     1  09:26        0.01
  SMH219               JUNCTION     0.01     0.01     7.22     0  09:37        0.01
  SMH22                JUNCTION     0.00     0.00    13.72     1  10:00        0.00
  SMH220               JUNCTION     0.01     0.01     6.91     1  10:00        0.01
  SMH221               JUNCTION     0.02     0.02     5.11     1  10:00        0.02
  SMH222               JUNCTION     0.01     0.02     5.51     1  10:00        0.02
  SMH223               JUNCTION     0.02     0.02     4.64     1  10:00        0.02
  SMH224               JUNCTION     0.02     0.03     4.27     1  10:00        0.03
  SMH225               JUNCTION     0.02     0.03     4.05     1  10:00        0.03
  SMH226               JUNCTION     0.01     0.02     3.70     1  10:00        0.02
  SMH227               JUNCTION     0.02     0.03     3.32     1  10:00        0.03
  SMH228               JUNCTION     0.01     0.01     3.65     0  09:29        0.01
  SMH229               JUNCTION     0.01     0.01     3.12     1  10:00        0.01
  SMH23                JUNCTION     0.00     0.01    13.20     1  10:00        0.01
  SMH230               JUNCTION     0.02     0.02     2.77     1  10:00        0.02
  SMH231               JUNCTION     0.02     0.03     2.13     1  10:00        0.03
  SMH232               JUNCTION     0.01     0.01     3.42     0  09:53        0.01
  SMH233               JUNCTION     0.01     0.01     2.98     1  10:00        0.01
  SMH234               JUNCTION     0.01     0.01     2.50     1  10:00        0.01
  SMH235               JUNCTION     0.04     0.05     1.76     1  10:00        0.05
  SMH236               JUNCTION     0.04     0.05     1.51     1  10:00        0.05
  SMH237               JUNCTION     0.04     0.05     1.46     1  10:00        0.05
  SMH238               JUNCTION     0.01     0.01     2.42     1  10:00        0.01
  SMH239               JUNCTION     0.01     0.01     2.87     0  09:39        0.01
  SMH24                JUNCTION     0.01     0.01    12.77     0  12:28        0.01
  SMH240               JUNCTION     0.03     0.04     1.24     1  10:00        0.04
  SMH241               JUNCTION     0.04     0.05     1.08     1  10:00        0.05
  SMH242               JUNCTION     0.04     0.05     1.89     1  10:00        0.05
  SMH243               JUNCTION     0.03     0.04     2.17     1  10:00        0.04
  SMH244               JUNCTION     0.02     0.03     2.71     1  10:00        0.03
  SMH245               JUNCTION     0.02     0.03     3.17     1  10:00        0.03
  SMH246               JUNCTION     0.02     0.03     3.36     1  10:00        0.03
  SMH247               JUNCTION     0.02     0.03     3.79     1  10:00        0.03
  SMH248               JUNCTION     0.00     0.00     5.89     1  10:00        0.00
  SMH249               JUNCTION     0.00     0.00     6.42     0  09:58        0.00
  SMH25                JUNCTION     0.01     0.01    12.46     0  12:49        0.01
  SMH250               JUNCTION     0.02     0.02     5.69     1  10:00        0.02
  SMH2502              JUNCTION     0.03     0.04     8.93     0  16:59        0.04
  SMH2503              JUNCTION     0.01     0.01     8.78     1  10:00        0.01
  SMH2504              JUNCTION     0.05     0.06     6.65     0  19:04        0.06
  SMH2505              JUNCTION     0.05     0.05     6.61     0  19:05        0.05
  SMH2506              JUNCTION     0.05     0.06     6.56     0  19:07        0.06
  SMH2507              JUNCTION     0.05     0.06     6.44     1  19:10        0.06
  SMH251               JUNCTION     0.02     0.03     7.56     1  10:00        0.03
  SMH252               JUNCTION     0.01     0.01     7.89     1  10:00        0.01
  SMH2525              JUNCTION     0.05     0.06     7.59     0  18:00        0.06
  SMH254               JUNCTION     0.04     0.05     7.65     1  10:00        0.05
  SMH255               JUNCTION     0.01     0.01     7.91     1  10:00        0.01
  SMH256               JUNCTION     0.01     0.01     8.15     1  10:00        0.01
  SMH257               JUNCTION     0.03     0.04     7.74     1  10:01        0.04
  SMH258               JUNCTION     0.01     0.02     8.12     1  10:00        0.02
  SMH259               JUNCTION     0.03     0.04     8.01     1  10:00        0.04
  SMH26                JUNCTION     0.01     0.01    12.11     0  12:13        0.01
  SMH260               JUNCTION     0.02     0.03     7.63     1  10:00        0.03
  SMH261               JUNCTION     0.03     0.03     7.43     1  10:00        0.03
  SMH262               JUNCTION     0.01     0.02     6.42     1  10:00        0.02
  SMH266               JUNCTION     0.02     0.02     7.72     1  10:00        0.02
  SMH267               JUNCTION     0.02     0.02     8.02     1  10:00        0.02
  SMH268               JUNCTION     0.01     0.02     8.52     1  10:00        0.02
  SMH269               JUNCTION     0.01     0.01     9.11     0  09:33        0.01
  SMH27                JUNCTION     0.04     0.05    10.63     0  13:50        0.05
  SMH270               JUNCTION     0.01     0.02     8.82     1  10:00        0.02
  SMH271               JUNCTION     0.01     0.01     9.31     0  09:40        0.01
  SMH272               JUNCTION     0.02     0.03     4.90     1  10:00        0.03
  SMH273               JUNCTION     0.02     0.03     4.79     1  10:00        0.03
  SMH274               JUNCTION     0.03     0.04     4.58     1  10:00        0.04
  SMH275               JUNCTION     0.03     0.04     4.53     1  10:00        0.04
  SMH276               JUNCTION     0.02     0.03     4.36     1  10:00        0.03
  SMH279               JUNCTION     0.02     0.03     5.23     1  10:00        0.03
  SMH28                JUNCTION     0.04     0.05    10.41     0  13:59        0.05
  SMH280               JUNCTION     0.01     0.02     5.15     1  10:00        0.02
  SMH281               JUNCTION     0.02     0.02     5.02     1  10:00        0.02
  SMH282               JUNCTION     0.02     0.02     5.46     1  10:00        0.02
  SMH283               JUNCTION     0.02     0.03     5.53     1  10:00        0.03
  SMH284               JUNCTION     0.01     0.01     5.70     1  09:35        0.01
  SMH285               JUNCTION     0.01     0.01     5.88     1  09:24        0.01
  SMH286               JUNCTION     0.01     0.01     6.08     1  10:00        0.01
  SMH287               JUNCTION     0.01     0.01     6.41     1  10:00        0.01
  SMH288               JUNCTION     0.00     0.00     7.65     1  10:00        0.00
  SMH289               JUNCTION     0.01     0.02     8.30     1  10:00        0.02
  SMH29                JUNCTION     0.01     0.01    11.81     0  12:24        0.01
  SMH290               JUNCTION     0.00     0.00     8.59     1  10:00        0.00
  SMH291               JUNCTION     0.02     0.02     8.31     0  09:56        0.02
  SMH292               JUNCTION     0.04     0.05     8.19     1  18:09        0.05
  SMH2926              JUNCTION     0.13     0.15    -1.26     1  19:57        0.15
  SMH2926_1            JUNCTION     0.13     0.15    -1.27     1  19:57        0.15
  SMH2927              JUNCTION     0.10     0.13    -1.17     1  19:05        0.13
  SMH2928              JUNCTION     0.11     0.14    -0.96     1  19:03        0.14
  SMH2929              JUNCTION     0.13     0.16    -0.81     1  19:00        0.16
  SMH293               JUNCTION     0.06     0.08     7.21     1  13:08        0.08
  SMH2930              JUNCTION     0.12     0.15    -0.68     1  18:58        0.15
  SMH2931              JUNCTION     0.10     0.12    -0.47     1  18:56        0.12
  SMH2931_1            JUNCTION     0.12     0.14    -0.41     1  18:54        0.14
  SMH2932              JUNCTION     0.00     0.00     0.19     0  00:00        0.00
  SMH2933              JUNCTION     0.00     0.00     0.26     0  00:00        0.00
  SMH2934              JUNCTION     0.01     0.01     0.72     1  10:00        0.01
  SMH2935              JUNCTION     0.11     0.13    -0.28     1  19:51        0.13
  SMH2936              JUNCTION     0.08     0.09    -0.06     1  19:47        0.09
  SMH2937              JUNCTION     0.09     0.12     0.06     1  19:43        0.12
  SMH2937_1            JUNCTION     0.02     0.02     1.57     1  10:00        0.02
  SMH2938              JUNCTION     0.11     0.13     0.10     1  19:41        0.13
  SMH2939              JUNCTION     0.05     0.06     0.13     1  19:39        0.06
  SMH294               JUNCTION     0.02     0.02     7.93     1  18:09        0.02
  SMH2940              JUNCTION     0.10     0.12     0.26     1  19:38        0.12
  SMH2941              JUNCTION     0.08     0.10     0.42     1  19:36        0.10
  SMH2942              JUNCTION     0.10     0.12     0.46     1  19:33        0.12
  SMH2943              JUNCTION     0.00     0.00     2.00     0  00:00        0.00
  SMH2944              JUNCTION     0.12     0.14     0.68     1  19:29        0.14
  SMH2945              JUNCTION     0.08     0.10     0.76     1  19:26        0.10
  SMH2946              JUNCTION     0.07     0.08     0.86     1  19:24        0.08
  SMH2947              JUNCTION     0.09     0.11     0.98     1  19:23        0.11
  SMH2948              JUNCTION     0.01     0.02     2.53     1  10:00        0.02
  SMH2949              JUNCTION     0.01     0.02     3.92     1  10:00        0.02
  SMH295               JUNCTION     0.01     0.01     7.37     1  12:04        0.01
  SMH2950              JUNCTION     0.08     0.10     1.02     1  19:21        0.10
  SMH2951              JUNCTION     0.05     0.06     2.63     1  19:19        0.06
  SMH2953              JUNCTION     0.06     0.07    -0.34     1  13:26        0.07
  SMH2955              JUNCTION     0.00     0.00     8.96     0  00:00        0.00
  SMH2956              JUNCTION     0.00     0.00     8.51     0  00:00        0.00
  SMH2957              JUNCTION     0.00     0.00     8.43     0  00:00        0.00
  SMH2958              JUNCTION     0.00     0.00     7.42     0  00:00        0.00
  SMH2959              JUNCTION     0.00     0.00     8.07     0  00:00        0.00
  SMH296               JUNCTION     0.07     0.08     6.95     1  13:10        0.08
  SMH2960              JUNCTION     0.00     0.00     8.31     0  00:00        0.00
  SMH2961              JUNCTION     0.00     0.00     8.46     0  00:00        0.00
  SMH2962              JUNCTION     0.01     0.01     8.50     1  10:00        0.01
  SMH2963              JUNCTION     0.06     0.09     8.35     1  10:00        0.09
  SMH2964              JUNCTION     0.06     0.08     7.61     1  10:00        0.08
  SMH2965              JUNCTION     0.05     0.07     7.22     1  10:00        0.07
  SMH2966              JUNCTION     0.06     0.09     6.48     1  10:00        0.09
  SMH2967              JUNCTION     0.05     0.07     6.08     1  10:00        0.07
  SMH2968              JUNCTION     0.04     0.05     4.01     0  13:22        0.05
  SMH2969              JUNCTION     0.05     0.06     4.07     0  13:22        0.06
  SMH2970              JUNCTION     0.08     0.10     4.21     0  13:22        0.10
  SMH2971              JUNCTION     0.07     0.09     4.23     0  13:20        0.09
  SMH2972              JUNCTION     0.07     0.08     4.31     0  13:18        0.08
  SMH2973              JUNCTION     0.08     0.09     4.39     0  13:15        0.09
  SMH2974              JUNCTION     0.06     0.07     4.67     0  13:14        0.07
  SMH2977              JUNCTION     0.02     0.03     8.55     1  10:00        0.03
  SMH2979              JUNCTION     0.02     0.03     9.11     0  15:38        0.03
  SMH298               JUNCTION     0.02     0.02     6.99     1  18:03        0.02
  SMH2980              JUNCTION     0.00     0.00     3.77     0  10:00        0.00
  SMH2981              JUNCTION     0.00     0.00     4.25     0  00:00        0.00
  SMH2981_1            JUNCTION     0.00     0.00     6.39     0  00:00        0.00
  SMH2982              JUNCTION     0.00     0.00     4.64     0  00:00        0.00
  SMH2982_1            JUNCTION     0.00     0.00     5.03     0  00:00        0.00
  SMH2982_2            JUNCTION     0.00     0.00     6.01     0  00:00        0.00
  SMH2983              JUNCTION     0.00     0.00     5.24     0  00:00        0.00
  SMH2984              JUNCTION     0.00     0.00     7.90     0  10:00        0.00
  SMH2_1               JUNCTION     0.00     0.00    12.08     0  00:00        0.00
  SMH3                 JUNCTION     0.03     0.04    11.32     0  12:47        0.04
  SMH30                JUNCTION     0.02     0.03    11.64     0  12:58        0.03
  SMH300               JUNCTION     0.05     0.07     6.65     1  13:11        0.07
  SMH301               JUNCTION     0.04     0.05     6.31     1  13:11        0.05
  SMH302               JUNCTION     0.06     0.07     6.25     1  13:12        0.07
  SMH303               JUNCTION     0.02     0.03     7.98     0  12:42        0.03
  SMH304               JUNCTION     0.00     0.00     8.27     1  10:00        0.00
  SMH305               JUNCTION     0.01     0.01     9.86     0  13:29        0.01
  SMH306               JUNCTION     0.02     0.02     9.61     0  15:27        0.02
  SMH307               JUNCTION     0.02     0.03     9.29     0  15:38        0.03
  SMH308               JUNCTION     0.02     0.03     9.06     0  15:38        0.03
  SMH309               JUNCTION     0.03     0.04     8.33     0  13:00        0.04
  SMH31                JUNCTION     0.00     0.00    12.25     0  00:00        0.00
  SMH310               JUNCTION     0.00     0.00     8.55     1  10:00        0.00
  SMH311               JUNCTION     0.00     0.00     8.65     1  10:03        0.00
  SMH312               JUNCTION     0.00     0.00     9.00     1  09:46        0.00
  SMH313               JUNCTION     0.00     0.00     9.18     1  10:00        0.00
  SMH314               JUNCTION     0.07     0.10     8.04     0  13:10        0.10
  SMH315               JUNCTION     0.07     0.10     8.06     0  13:09        0.10
  SMH316               JUNCTION     0.04     0.05     7.69     1  13:06        0.05
  SMH317               JUNCTION     0.01     0.02     8.01     1  10:00        0.02
  SMH318               JUNCTION     0.06     0.07     6.15     0  19:28        0.07
  SMH319               JUNCTION     0.06     0.07     6.42     0  17:56        0.07
  SMH32                JUNCTION     0.00     0.00    11.98     0  00:00        0.00
  SMH320               JUNCTION     0.05     0.06     6.63     1  13:04        0.06
  SMH321               JUNCTION     0.06     0.07     5.98     0  19:30        0.07
  SMH322               JUNCTION     0.08     0.09     5.83     0  19:32        0.09
  SMH323               JUNCTION     0.02     0.03     5.75     0  19:37        0.03
  SMH324               JUNCTION     0.06     0.07     5.75     0  19:36        0.07
  SMH325               JUNCTION     0.01     0.01     6.07     1  10:00        0.01
  SMH327               JUNCTION     0.04     0.05     5.26     0  19:37        0.05
  SMH328               JUNCTION     0.00     0.01     6.65     1  10:00        0.01
  SMH329               JUNCTION     0.02     0.03     7.19     1  10:00        0.03
  SMH329_1             JUNCTION     0.01     0.01     7.24     1  10:00        0.01
  SMH33                JUNCTION     0.00     0.00    11.21     0  00:00        0.00
  SMH330               JUNCTION     0.02     0.02    11.27     1  12:42        0.02
  SMH331               JUNCTION     0.00     0.01     6.47     0  08:28        0.01
  SMH332               JUNCTION     0.06     0.07     6.82     1  13:00        0.07
  SMH333               JUNCTION     0.00     0.00     7.75     1  10:00        0.00
  SMH334               JUNCTION     0.03     0.03     7.12     1  13:11        0.03
  SMH335               JUNCTION     0.06     0.08     7.81     0  13:13        0.08
  SMH338               JUNCTION     0.05     0.06     7.31     1  13:10        0.06
  SMH339               JUNCTION     0.01     0.01     8.62     0  14:48        0.01
  SMH34                JUNCTION     0.00     0.00    10.95     0  00:00        0.00
  SMH340               JUNCTION     0.00     0.00     8.90     0  00:00        0.00
  SMH341               JUNCTION     0.00     0.00     8.85     0  15:00        0.00
  SMH343               JUNCTION     0.04     0.05     7.48     1  13:08        0.05
  SMH345               JUNCTION     0.02     0.02     9.52     0  09:03        0.02
  SMH346               JUNCTION     0.10     0.13     7.43     1  13:07        0.13
  SMH347               JUNCTION     0.01     0.02     9.27     0  09:45        0.02
  SMH348               JUNCTION     0.02     0.02     7.47     1  10:00        0.02
  SMH349               JUNCTION     0.02     0.02     7.77     1  09:05        0.02
  SMH349_1             JUNCTION     0.00     0.00     8.12     0  00:00        0.00
  SMH35                JUNCTION     0.03     0.04    10.51     0  14:30        0.04
  SMH350               JUNCTION     0.01     0.02     8.05     1  10:00        0.02
  SMH351               JUNCTION     0.01     0.01     8.45     1  10:00        0.01
  SMH352               JUNCTION     0.00     0.00     8.54     0  09:29        0.00
  SMH355               JUNCTION     0.01     0.02     6.72     1  10:00        0.02
  SMH356               JUNCTION     0.02     0.02     7.33     1  10:00        0.02
  SMH357               JUNCTION     0.01     0.02     7.65     0  09:59        0.02
  SMH358               JUNCTION     0.00     0.01     7.87     1  09:55        0.01
  SMH359               JUNCTION     0.00     0.01     8.11     1  09:50        0.01
  SMH360               JUNCTION     0.00     0.00     7.44     1  10:00        0.00
  SMH361               JUNCTION     0.01     0.01     8.25     0  09:54        0.01
  SMH362               JUNCTION     0.01     0.02     7.91     1  10:00        0.02
  SMH363               JUNCTION     0.01     0.02     7.28     1  10:00        0.02
  SMH364               JUNCTION     0.03     0.04     6.98     1  10:00        0.04
  SMH365               JUNCTION     0.03     0.04     6.93     1  10:01        0.04
  SMH367               JUNCTION     0.02     0.03     6.85     1  10:00        0.03
  SMH368               JUNCTION     0.03     0.05     7.14     1  10:00        0.05
  SMH369               JUNCTION     0.01     0.02     7.82     1  10:00        0.02
  SMH370               JUNCTION     0.01     0.02     7.92     1  10:00        0.02
  SMH371               JUNCTION     0.01     0.01     7.51     1  10:00        0.01
  SMH372               JUNCTION     0.02     0.02     7.18     1  09:14        0.02
  SMH373               JUNCTION     0.02     0.02     8.02     1  10:00        0.02
  SMH374               JUNCTION     0.01     0.02     6.97     1  09:26        0.02
  SMH375               JUNCTION     0.02     0.02     6.72     1  10:00        0.02
  SMH376               JUNCTION     0.09     0.12     8.20     0  13:08        0.12
  SMH377               JUNCTION     0.04     0.04     7.91     1  13:04        0.04
  SMH378               JUNCTION     0.02     0.02     7.31     1  10:00        0.02
  SMH38                JUNCTION     0.03     0.04     9.65     0  14:16        0.04
  SMH380               JUNCTION     0.04     0.05     8.71     0  14:45        0.05
  SMH381               JUNCTION     0.05     0.06     8.90     0  14:44        0.06
  SMH382               JUNCTION     0.03     0.04     9.06     0  14:28        0.04
  SMH383               JUNCTION     0.02     0.02     9.42     0  14:29        0.02
  SMH384               JUNCTION     0.02     0.03     8.05     1  13:00        0.03
  SMH385               JUNCTION     0.02     0.02     8.31     0  13:08        0.02
  SMH386               JUNCTION     0.04     0.05     8.16     1  13:02        0.05
  SMH387               JUNCTION     0.03     0.04     8.32     0  18:01        0.04
  SMH388               JUNCTION     0.06     0.06     8.35     0  13:30        0.06
  SMH389               JUNCTION     0.01     0.01     8.36     0  12:27        0.01
  SMH39                JUNCTION     0.03     0.03     8.93     1  13:00        0.03
  SMH390               JUNCTION     0.01     0.01     8.66     0  12:14        0.01
  SMH391               JUNCTION     0.00     0.01     9.59     1  10:00        0.01
  SMH392               JUNCTION     0.01     0.01     9.19     1  10:00        0.01
  SMH393               JUNCTION     0.01     0.02     8.62     1  10:07        0.02
  SMH394               JUNCTION     0.02     0.03     8.21     0  12:12        0.03
  SMH395               JUNCTION     0.01     0.01     8.99     0  12:20        0.01
  SMH396               JUNCTION     0.02     0.03     8.12     0  12:24        0.03
  SMH397               JUNCTION     0.01     0.01     8.92     0  09:29        0.01
  SMH398               JUNCTION     0.02     0.02     8.12     1  10:00        0.02
  SMH399               JUNCTION     0.00     0.00     8.79     0  00:00        0.00
  SMH399_1             JUNCTION     0.00     0.00     9.21     0  00:00        0.00
  SMH4                 JUNCTION     0.00     0.00    11.89     0  00:00        0.00
  SMH40                JUNCTION     0.05     0.06     7.89     1  13:00        0.06
  SMH400               JUNCTION     0.01     0.01     9.83     0  13:29        0.01
  SMH401               JUNCTION     0.01     0.01     9.97     0  16:24        0.01
  SMH401_1             JUNCTION     0.00     0.00    10.04     0  00:00        0.00
  SMH402               JUNCTION     0.02     0.02     9.31     1  19:02        0.02
  SMH402_1             JUNCTION     0.01     0.01     9.69     0  14:53        0.01
  SMH403               JUNCTION     0.01     0.01     8.86     1  19:03        0.01
  SMH404               JUNCTION     0.01     0.01     7.93     0  19:04        0.01
  SMH406               JUNCTION     0.01     0.02     7.73     1  09:16        0.02
  SMH407               JUNCTION     0.01     0.01     7.88     1  10:00        0.01
  SMH408               JUNCTION     0.02     0.02     7.40     0  12:31        0.02
  SMH408_1             JUNCTION     0.00     0.01     7.52     1  10:00        0.01
  SMH409               JUNCTION     0.03     0.03     7.21     0  13:00        0.03
  SMH41                JUNCTION     0.01     0.01    10.58     0  16:45        0.01
  SMH410               JUNCTION     0.03     0.04     6.89     1  10:00        0.04
  SMH412               JUNCTION     0.04     0.05     6.60     1  19:00        0.05
  SMH413               JUNCTION     0.07     0.08     6.37     1  13:00        0.08
  SMH414               JUNCTION     0.03     0.04     6.77     1  13:00        0.04
  SMH415               JUNCTION     0.04     0.05     7.06     1  13:01        0.05
  SMH416               JUNCTION     0.06     0.07     6.07     0  18:14        0.07
  SMH417               JUNCTION     0.01     0.01     6.28     1  10:00        0.01
  SMH418               JUNCTION     0.01     0.01     6.59     1  10:00        0.01
  SMH419               JUNCTION     0.01     0.02     3.37     0  12:44        0.02
  SMH419_1             JUNCTION     0.00     0.00     5.60     0  00:00        0.00
  SMH419_2             JUNCTION     0.01     0.02     5.33     0  13:03        0.02
  SMH42                JUNCTION     0.01     0.01    11.56     1  10:00        0.01
  SMH420               JUNCTION     0.00     0.00     3.50     0  10:05        0.00
  SMH421               JUNCTION     0.06     0.08     5.82     1  13:02        0.08
  SMH422               JUNCTION     0.06     0.08     5.14     1  13:05        0.08
  SMH423               JUNCTION     0.07     0.08     5.07     0  13:06        0.08
  SMH424               JUNCTION     0.07     0.08     4.98     0  13:07        0.08
  SMH426               JUNCTION     0.08     0.10     4.97     0  13:08        0.10
  SMH428               JUNCTION     0.07     0.08     4.93     0  13:08        0.08
  SMH429               JUNCTION     0.07     0.08     4.91     0  13:09        0.08
  SMH43                JUNCTION     0.01     0.01    10.18     0  16:45        0.01
  SMH430               JUNCTION     0.01     0.01     5.69     0  18:17        0.01
  SMH431               JUNCTION     0.01     0.01     6.05     1  18:11        0.01
  SMH432               JUNCTION     0.01     0.01     6.70     1  13:00        0.01
  SMH433               JUNCTION     0.01     0.01     6.93     1  12:40        0.01
  SMH434               JUNCTION     0.01     0.01     7.23     0  14:14        0.01
  SMH435               JUNCTION     0.07     0.16     6.91     0  22:25        0.16
  SMH436               JUNCTION     0.00     0.00     7.53     0  00:00        0.00
  SMH437               JUNCTION     0.00     0.00     8.27     0  00:00        0.00
  SMH438               JUNCTION     0.00     0.00     6.98     1  10:00        0.00
  SMH439               JUNCTION     0.00     0.00     6.19     1  10:00        0.00
  SMH44                JUNCTION     0.01     0.02    10.14     1  13:02        0.02
  SMH440               JUNCTION     0.02     0.02     5.87     0  12:29        0.02
  SMH441               JUNCTION     0.02     0.02     6.46     1  10:00        0.02
  SMH442               JUNCTION     0.05     0.06     6.12     1  19:12        0.06
  SMH443               JUNCTION     0.05     0.19     5.37     1  15:58        0.17
  SMH444               JUNCTION     0.02     0.02     5.94     1  10:00        0.02
  SMH445               JUNCTION     0.02     0.03     5.87     1  10:00        0.03
  SMH446               JUNCTION     0.02     0.03     5.59     1  10:00        0.03
  SMH447               JUNCTION     0.02     0.03     5.48     1  09:31        0.03
  SMH448               JUNCTION     0.02     0.03     5.29     1  09:52        0.03
  SMH449               JUNCTION     0.07     0.09     4.88     0  13:07        0.09
  SMH45                JUNCTION     0.02     0.02     9.91     0  13:05        0.02
  SMH450               JUNCTION     0.00     0.01     4.99     1  10:00        0.01
  SMH451               JUNCTION     0.00     0.01     5.50     1  10:00        0.01
  SMH451_1             JUNCTION     0.00     0.00     5.61     0  00:00        0.00
  SMH452               JUNCTION     0.02     0.02     2.06     0  12:58        0.02
  SMH452_1             JUNCTION     0.02     0.02     2.50     0  12:56        0.02
  SMH453               JUNCTION     0.01     0.01     1.82     0  12:36        0.01
  SMH454               JUNCTION     0.01     0.01     3.55     1  10:01        0.01
  SMH455               JUNCTION     0.01     0.01     3.78     1  10:00        0.01
  SMH456               JUNCTION     0.01     0.01     4.28     1  10:00        0.01
  SMH457               JUNCTION     0.01     0.01     4.72     1  10:00        0.01
  SMH457_1             JUNCTION     0.00     0.00     4.85     0  00:00        0.00
  SMH459               JUNCTION     0.08     0.09     4.73     0  13:12        0.09
  SMH46                JUNCTION     0.02     0.03     9.69     0  12:53        0.03
  SMH460               JUNCTION     0.07     0.09     4.78     0  13:11        0.09
  SMH461               JUNCTION     0.07     0.09     4.79     0  13:10        0.09
  SMH462               JUNCTION     0.02     0.03     5.11     0  12:20        0.03
  SMH463               JUNCTION     0.02     0.02     5.14     0  12:09        0.02
  SMH464               JUNCTION     0.01     0.01     6.08     1  10:00        0.01
  SMH465               JUNCTION     0.00     0.01     5.37     1  10:00        0.01
  SMH466               JUNCTION     0.01     0.01     5.78     1  10:00        0.01
  SMH467               JUNCTION     0.01     0.02     6.24     1  10:00        0.02
  SMH468               JUNCTION     0.06     0.12     5.02     1  15:59        0.12
  SMH469               JUNCTION     0.00     0.00     6.28     0  00:00        0.00
  SMH47                JUNCTION     0.02     0.03     9.55     0  13:11        0.03
  SMH470               JUNCTION     0.06     0.11     4.69     0  14:00        0.10
  SMH471               JUNCTION     0.00     0.00     4.97     1  10:00        0.00
  SMH472               JUNCTION     0.02     0.02     4.68     1  10:00        0.02
  SMH473               JUNCTION     0.06     0.09     4.35     0  14:03        0.09
  SMH474               JUNCTION     0.05     0.08     4.17     0  14:04        0.08
  SMH475               JUNCTION     0.06     0.09     3.77     0  14:05        0.09
  SMH476               JUNCTION     0.06     0.09     3.67     1  15:10        0.09
  SMH477               JUNCTION     0.07     0.11     3.66     1  15:11        0.11
  SMH478               JUNCTION     0.01     0.01     4.02     1  10:00        0.01
  SMH479               JUNCTION     0.00     0.01     4.51     1  10:00        0.01
  SMH479_1             JUNCTION     0.00     0.00     4.80     0  00:00        0.00
  SMH48                JUNCTION     0.00     0.00     9.65     0  00:00        0.00
  SMH480               JUNCTION     0.01     0.01     9.13     1  10:00        0.01
  SMH481               JUNCTION     0.04     0.05     6.77     0  19:04        0.05
  SMH482               JUNCTION     0.04     0.05     7.10     0  13:05        0.05
  SMH483               JUNCTION     0.04     0.05     7.21     0  12:20        0.05
  SMH484               JUNCTION     0.01     0.02     7.36     0  10:00        0.02
  SMH485               JUNCTION     0.01     0.02     7.44     1  09:02        0.02
  SMH486               JUNCTION     0.02     0.02     6.75     0  13:59        0.02
  SMH487               JUNCTION     0.05     0.07     7.31     0  12:10        0.07
  SMH488               JUNCTION     0.02     0.03     5.99     1  13:00        0.03
  SMH489               JUNCTION     0.02     0.03     4.74     0  12:47        0.03
  SMH49                JUNCTION     0.02     0.03     9.46     1  18:02        0.03
  SMH490               JUNCTION     0.01     0.01     6.38     1  10:00        0.01
  SMH491               JUNCTION     0.08     0.11     3.17     1  19:10        0.11
  SMH492               JUNCTION     0.02     0.03     4.40     0  13:00        0.03
  SMH492_1             JUNCTION     0.00     0.00     5.13     1  08:16        0.00
  SMH493               JUNCTION     0.06     0.09     3.43     1  15:15        0.09
  SMH494               JUNCTION     0.06     0.07     3.08     1  13:41        0.07
  SMH494_1             JUNCTION     0.06     0.07     3.10     1  13:40        0.07
  SMH494_2             JUNCTION     0.06     0.07     3.17     1  13:38        0.07
  SMH495               JUNCTION     0.06     0.07     3.20     1  13:37        0.07
  SMH496               JUNCTION     0.02     0.03     5.80     0  12:44        0.03
  SMH497               JUNCTION     0.01     0.01     8.20     1  10:00        0.01
  SMH497_1             JUNCTION     0.01     0.01     8.86     1  10:00        0.01
  SMH498               JUNCTION     0.09     0.11     5.48     1  13:04        0.11
  SMH499               JUNCTION     0.05     0.06     5.53     1  13:02        0.06
  SMH5                 JUNCTION     0.00     0.00    11.38     0  00:00        0.00
  SMH500               JUNCTION     0.08     0.09     4.98     0  13:07        0.09
[...]
  SMA4626                 1.00   0.00  0.00  0.00  1.00  0.00  0.00  0.00  0.99  0.00
  SMA4627                 1.00   0.00  0.00  0.00  1.00  0.00  0.00  0.00  0.19  0.00
  SMA4628                 1.00   0.00  0.00  0.00  1.00  0.00  0.00  0.00  0.01  0.00
  SMA4629                 1.00   0.00  0.00  0.00  0.00  0.00  0.00  1.00  0.00  0.00
  SMA4631                 1.00   0.00  0.00  0.00  1.00  0.00  0.00  0.00  1.00  0.00
  SMA4632                 1.00   0.00  0.00  0.00  1.00  0.00  0.00  0.00  0.10  0.00
  SMA4633                 1.00   0.00  0.00  0.00  1.00  0.00  0.00  0.00  0.99  0.00
  SMA4634                 1.00   0.00  0.00  0.00  1.00  0.00  0.00  0.00  0.00  0.00
  SMA4635                 1.00   0.00  0.00  0.00  1.00  0.00  0.00  0.00  0.00  0.00
  SMA4636                 1.00   0.00  0.00  0.00  0.01  0.99  0.00  0.00  1.00  0.00
  SMA4637                 1.00   0.00  0.00  0.00  0.14  0.86  0.00  0.00  0.96  0.00
  SMA4638                 1.00   0.00  0.00  0.00  0.14  0.86  0.00  0.00  0.14  0.00
  SMA4639                 1.00   0.00  0.00  0.00  1.00  0.00  0.00  0.00  1.00  0.00
  SMA4640                 1.00   0.00  0.00  0.00  0.00  0.00  0.00  1.00  0.00  0.00
  SMA4641                 1.00   0.00  0.00  0.00  0.00  0.00  0.00  1.00  0.00  0.00
  SMA4642                 1.00   0.00  0.00  0.00  1.00  0.00  0.00  0.00  1.00  0.00
  SMA4643                 1.00   0.00  0.00  0.00  0.00  0.00  0.00  1.00  0.00  0.00
  SMA4644                 1.00   0.00  0.00  0.00  1.00  0.00  0.00  0.00  0.99  0.00
  SMA4645                 1.00   0.00  0.00  0.00  0.00  0.00  0.00  1.00  0.00  0.00
  SMA4646                 1.00   0.00  0.00  0.00  1.00  0.00  0.00  0.00  0.51  0.00
  SMA4647                 1.00   0.00  0.00  0.00  0.00  0.00  0.00  1.00  0.00  0.00
  SMA4648                 1.00   0.00  0.00  0.00  0.00  0.00  0.00  1.00  0.00  0.00
  SMA4649                 1.00   0.00  0.00  0.00  0.23  0.77  0.00  0.00  0.00  0.00
  SMA4650                 1.00   0.00  0.00  0.00  0.00  0.00  0.00  1.00  0.00  0.00
  SMA4651                 1.00   0.00  0.00  0.00  0.00  0.00  0.00  1.00  0.00  0.00
  SMA4652                 1.00   0.00  0.00  0.00  0.00  0.00  0.00  1.00  0.00  0.00
  SMA4653                 1.00   0.00  0.00  0.00  0.01  0.99  0.00  0.00  1.00  0.00
  SMA4654                 1.00   0.00  0.00  0.00  1.00  0.00  0.00  0.00  0.99  0.00
  SMA4674                 1.00   0.00  0.00  0.00  0.00  0.00  0.00  1.00  0.00  0.00
  SMA4680                 1.00   0.00  0.00  0.00  1.00  0.00  0.00  0.00  0.88  0.00
  SMA4697                 1.00   0.00  0.00  0.00  0.00  0.00  0.00  1.00  0.00  0.00
  SMA4699                 1.00   0.00  0.00  0.00  1.00  0.00  0.00  0.00  0.99  0.00
  SMA4700                 1.00   0.00  0.00  0.00  1.00  0.00  0.00  0.00  0.00  0.00
  SMA5111                 1.00   0.00  0.00  0.00  1.00  0.00  0.00  0.00  1.00  0.00
  SMA5512                 1.00   0.01  0.00  0.00  0.99  0.00  0.00  0.00  0.00  0.00
  SMA5513                 1.00   0.01  0.00  0.00  0.99  0.00  0.00  0.00  0.00  0.00
  SMA5514                 1.00   0.00  0.00  0.00  0.00  1.00  0.00  0.00  1.00  0.00
  SMA5914                 1.00   0.00  0.00  0.00  1.00  0.00  0.00  0.00  0.97  0.00
  SMA6316                 1.00   0.02  0.00  0.00  0.98  0.00  0.00  0.00  0.02  0.00
  SMA6317                 1.00   0.02  0.93  0.00  0.00  0.00  0.05  0.00  0.00  0.00
  SMA6320                 1.00   0.00  0.02  0.00  0.98  0.00  0.00  0.00  0.00  0.00
  SMA6321                 1.00   0.00  0.00  0.00  0.00  0.00  0.00  1.00  0.00  0.00
  SMA6323                 1.00   0.00  0.00  0.00  0.00  0.00  0.00  1.00  0.00  0.00
  SMA6324                 1.00   0.00  1.00  0.00  0.00  0.00  0.00  0.00  0.00  0.00
  SMA6325                 1.00   1.00  0.00  0.00  0.00  0.00  0.00  0.00  0.00  0.00
  SMA6326                 1.00   1.00  0.00  0.00  0.00  0.00  0.00  0.00  0.00  0.00
  SMA6327                 1.00   1.00  0.00  0.00  0.00  0.00  0.00  0.00  0.00  0.00
  SMA6729                 1.00   0.01  0.00  0.00  0.99  0.00  0.00  0.00  0.00  0.00
  SMA6730                 1.00   0.00  0.00  0.00  1.00  0.00  0.00  0.00  0.09  0.00
  SMA6731                 1.00   0.00  0.00  0.00  0.99  0.01  0.00  0.00  0.24  0.00
  SMA6733                 1.00   0.00  0.02  0.00  0.98  0.00  0.00  0.00  0.00  0.00
  SMA7143                 1.00   0.00  0.00  0.00  1.00  0.00  0.00  0.00  1.00  0.00
  SMA7145                 1.00   1.00  0.00  0.00  0.00  0.00  0.00  0.00  0.00  0.00
  SMA7570                 1.00   0.00  0.00  0.00  1.00  0.00  0.00  0.00  0.00  0.00
  SMA7571                 1.00   0.00  0.00  0.00  1.00  0.00  0.00  0.00  0.00  0.00
  SMA7572                 1.00   0.00  0.00  0.00  0.99  0.00  0.00  0.00  0.99  0.00
  SMA7573                 1.00   0.00  0.00  0.00  0.97  0.00  0.00  0.02  0.00  0.00
  SMA7574                 1.00   0.00  0.00  0.00  1.00  0.00  0.00  0.00  0.00  0.00
  SMA7576                 1.00   0.00  0.00  0.00  1.00  0.00  0.00  0.00  0.99  0.00
  SMA7577                 1.00   0.00  0.00  0.00  1.00  0.00  0.00  0.00  0.97  0.00
  SMA7578                 1.00   0.00  0.00  0.00  1.00  0.00  0.00  0.00  0.00  0.00
  SMA7579                 1.00   1.00  0.00  0.00  0.00  0.00  0.00  0.00  0.00  0.00
  SMA7580                 1.00   1.00  0.00  0.00  0.00  0.00  0.00  0.00  0.00  0.00
  SMA7581                 1.00   0.00  0.00  0.00  0.00  0.00  0.00  1.00  0.00  0.00
  SMA7582                 1.00   0.00  0.00  0.00  0.00  0.71  0.00  0.28  0.71  0.00
  SMA7583                 1.00   0.00  0.00  0.00  0.00  0.00  0.00  1.00  0.00  0.00
  SMA7584                 1.00   0.00  0.00  0.00  1.00  0.00  0.00  0.00  0.99  0.00
  SMA7585                 1.00   0.00  0.00  0.00  1.00  0.00  0.00  0.00  0.00  0.00
  SMA7585_1               1.00   0.00  0.00  0.00  0.99  0.00  0.00  0.00  0.02  0.00
  SMA7587                 1.00   0.00  0.00  0.00  1.00  0.00  0.00  0.00  0.99  0.00
  SMA7588                 1.00   0.00  0.00  0.00  1.00  0.00  0.00  0.00  0.00  0.00
  SMA7589                 1.00   0.00  0.00  0.00  1.00  0.00  0.00  0.00  0.98  0.00
  SMA7590                 1.00   0.00  0.00  0.00  1.00  0.00  0.00  0.00  1.00  0.00
  SMA7591                 1.00   0.00  0.00  0.00  1.00  0.00  0.00  0.00  0.00  0.00
  SMA7592                 1.00   1.00  0.00  0.00  0.00  0.00  0.00  0.00  0.00  0.00
  SMA7593                 1.00   0.00  0.00  0.00  1.00  0.00  0.00  0.00  0.00  0.00
  SMA7594                 1.00   0.00  0.00  0.00  1.00  0.00  0.00  0.00  0.99  0.00
  SMA7596                 1.00   0.00  0.00  0.00  1.00  0.00  0.00  0.00  1.00  0.00
  SMA7597                 1.00   0.00  0.00  0.00  1.00  0.00  0.00  0.00  0.00  0.00
  SMA7598                 1.00   0.00  0.00  0.00  0.00  0.00  0.00  1.00  0.00  0.00
  SMA7599                 1.00   0.00  0.00  0.00  0.00  0.00  0.00  1.00  0.00  0.00
  SMA7600                 1.00   0.00  0.00  0.00  1.00  0.00  0.00  0.00  1.00  0.00
  SMA7601                 1.00   0.00  0.00  0.00  1.00  0.00  0.00  0.00  1.00  0.00
  SMA7602                 1.00   0.00  0.00  0.00  0.00  0.00  0.00  1.00  0.00  0.00
  SMA7603                 1.00   0.02  0.00  0.00  0.00  0.00  0.00  0.98  0.00  0.00
  SMA7604                 1.00   0.00  0.00  0.00  0.00  0.00  0.00  1.00  0.00  0.00
  SMA7611                 1.00   1.00  0.00  0.00  0.00  0.00  0.00  0.00  0.00  0.00
  SMA7612                 1.00   1.00  0.00  0.00  0.00  0.00  0.00  0.00  0.00  0.00
  SMA7613                 1.00   1.00  0.00  0.00  0.00  0.00  0.00  0.00  0.00  0.00
  SMA7614                 1.00   0.00  0.00  0.00  0.00  0.00  0.00  1.00  0.00  0.00
  SMA8014                 1.00   1.00  0.00  0.00  0.00  0.00  0.00  0.00  0.00  0.00
  SMA8015                 1.00   1.00  0.00  0.00  0.00  0.00  0.00  0.00  0.00  0.00
  SMA8016                 1.00   1.00  0.00  0.00  0.00  0.00  0.00  0.00  0.00  0.00
  SMA8017                 1.00   1.00  0.00  0.00  0.00  0.00  0.00  0.00  0.00  0.00
  SMA8018                 1.00   0.00  0.00  0.00  0.00  0.00  0.00  1.00  0.00  0.00
  SMA8019                 1.00   0.00  0.00  0.00  0.00  1.00  0.00  0.00  1.00  0.00
  SMA8020                 1.00   0.00  0.00  0.00  0.00  0.00  0.00  1.00  0.00  0.00
  SMA8021                 1.00   0.00  0.00  0.00  0.00  0.00  0.00  1.00  0.00  0.00
  SMA8022                 1.00   0.00  0.00  0.00  0.00  0.00  0.00  1.00  0.00  0.00
  SMA8023                 1.00   0.00  0.00  0.00  0.99  0.00  0.00  0.01  0.00  0.00
  SMA8024                 1.00   0.00  0.00  0.00  0.99  0.00  0.00  0.01  0.58  0.00
  SMA8025                 1.00   0.00  0.00  0.00  0.99  0.00  0.00  0.00  0.02  0.00
  SMA8026                 1.00   0.00  0.00  0.00  0.00  0.00  0.00  1.00  0.00  0.00
  SMA8027                 1.00   0.00  0.00  0.00  0.00  0.00  0.00  1.00  0.00  0.00
  SMA8028                 1.00   0.00  0.00  0.00  0.97  0.01  0.00  0.02  0.98  0.00
  SMA8029                 1.00   0.00  0.00  0.00  1.00  0.00  0.00  0.00  1.00  0.00
  SMA8030                 1.00   0.00  0.00  0.00  0.00  0.00  0.00  1.00  0.00  0.00
  SMA8120                 1.00   1.00  0.00  0.00  0.00  0.00  0.00  0.00  0.00  0.00
  SMA8121                 1.00   1.00  0.00  0.00  0.00  0.00  0.00  0.00  0.00  0.00
  SMA8121_1               1.00   1.00  0.00  0.00  0.00  0.00  0.00  0.00  0.00  0.00
  SMA8122                 1.00   1.00  0.00  0.00  0.00  0.00  0.00  0.00  0.00  0.00
  SMA8123                 1.00   1.00  0.00  0.00  0.00  0.00  0.00  0.00  0.00  0.00
  SMA8124                 1.00   0.96  0.04  0.00  0.00  0.00  0.00  0.00  0.00  0.00
  SMA8125                 1.00   0.00  0.00  0.00  0.00  0.00  0.00  1.00  0.00  0.00
  SMA8126                 1.00   1.00  0.00  0.00  0.00  0.00  0.00  0.00  0.00  0.00
  SMA8127                 1.00   1.00  0.00  0.00  0.00  0.00  0.00  0.00  0.00  0.00
  SMA8128                 1.00   1.00  0.00  0.00  0.00  0.00  0.00  0.00  0.00  0.00
  SMA8129                 1.00   0.00  1.00  0.00  0.00  0.00  0.00  0.00  0.00  0.00
  SMA8130                 1.00   1.00  0.00  0.00  0.00  0.00  0.00  0.00  0.00  0.00
  SMA8131                 1.00   1.00  0.00  0.00  0.00  0.00  0.00  0.00  0.00  0.00
  SMA8132                 1.00   0.00  0.00  0.00  0.00  0.00  0.00  1.00  0.00  0.00
  SMA8133                 1.00   0.00  0.00  0.00  1.00  0.00  0.00  0.00  1.00  0.00
  SMA8136                 1.00   0.00  0.00  0.00  1.00  0.00  0.00  0.00  0.00  0.00
  SMA8137                 1.00   0.00  0.00  0.00  1.00  0.00  0.00  0.00  0.00  0.00
  SMA8138                 1.00   0.00  0.00  0.00  1.00  0.00  0.00  0.00  1.00  0.00
  SMA8139                 1.00   0.00  0.00  0.00  1.00  0.00  0.00  0.00  0.74  0.00
  SMA8142                 1.00   1.00  0.00  0.00  0.00  0.00  0.00  0.00  0.00  0.00
  SMA8143                 1.00   1.00  0.00  0.00  0.00  0.00  0.00  0.00  0.00  0.00
  SMA8144                 1.00   1.00  0.00  0.00  0.00  0.00  0.00  0.00  0.00  0.00
  SMA8145                 1.00   1.00  0.00  0.00  0.00  0.00  0.00  0.00  0.00  0.00
  SMA8146                 1.00   0.00  0.00  0.00  0.00  0.00  0.00  1.00  0.00  0.00
  SMA8147                 1.00   0.00  0.00  0.00  0.57  0.00  0.00  0.43  0.00  0.00
  SMA8148                 1.00   0.00  0.00  0.00  0.00  0.00  0.00  1.00  0.00  0.00
  SMA8149                 1.00   0.00  0.00  0.00  0.00  0.00  0.00  1.00  0.00  0.00
  SMA8150                 1.00   0.00  0.00  0.00  1.00  0.00  0.00  0.00  0.98  0.00
  SMA8151                 1.00   0.00  0.00  0.00  0.00  0.00  0.00  1.00  0.00  0.00
  SMA8152                 1.00   0.00  0.00  0.00  0.00  0.47  0.00  0.53  0.47  0.00
  SMA8153                 1.00   0.00  0.00  0.00  1.00  0.00  0.00  0.00  1.00  0.00
  SMA8154                 1.00   0.00  0.00  0.00  0.00  0.00  0.00  1.00  0.00  0.00
  SMA8155                 1.00   0.00  0.00  0.00  0.78  0.21  0.00  0.01  0.99  0.00
  SMA8156                 1.00   0.00  0.00  0.00  0.00  0.00  0.00  1.00  0.00  0.00
  SMA8157                 1.00   0.00  0.00  0.00  1.00  0.00  0.00  0.00  0.07  0.00
  SMA8158                 1.00   0.00  0.00  0.00  1.00  0.00  0.00  0.00  0.99  0.00
  SMA8159                 1.00   0.00  0.01  0.00  0.99  0.00  0.00  0.00  0.71  0.00
  SMA8160                 1.00   0.00  0.00  0.00  1.00  0.00  0.00  0.00  0.14  0.00
  SMA8161                 1.00   0.00  0.00  0.00  1.00  0.00  0.00  0.00  0.95  0.00
  SMA8162                 1.00   0.00  0.00  0.00  0.00  0.00  0.00  1.00  0.00  0.00
  SMA8163                 1.00   0.00  0.00  0.00  0.98  0.00  0.00  0.02  0.20  0.00
  SMA8164                 1.00   0.00  0.00  0.00  0.00  0.00  0.00  1.00  0.00  0.00
  SMA8165                 1.00   0.00  0.00  0.00  0.00  0.00  0.00  1.00  0.00  0.00
  SMA8166                 1.00   0.00  0.00  0.00  1.00  0.00  0.00  0.00  1.00  0.00
  SMA8167                 1.00   0.00  0.00  0.00  0.87  0.04  0.00  0.09  0.90  0.00
  SMA8168                 1.00   0.00  0.00  0.00  0.00  0.00  0.00  1.00  0.00  0.00
  SMA8169                 1.00   0.00  0.00  0.00  0.00  0.02  0.00  0.98  0.02  0.00
  SMA8170                 1.00   0.00  0.00  0.00  0.00  0.15  0.00  0.85  0.14  0.00
  SMA8171                 1.00   0.00  0.00  0.00  0.00  0.00  0.00  1.00  0.00  0.00
  SMA8172                 1.00   0.00  0.00  0.00  0.00  0.00  0.00  1.00  0.00  0.00
  SMA8173                 1.00   0.00  0.00  0.00  0.00  0.00  0.00  1.00  0.00  0.00
  SMA8174                 1.00   0.00  0.00  0.00  0.00  0.00  0.00  1.00  0.00  0.00
  SMA8175                 1.00   0.00  0.00  0.00  0.00  1.00  0.00  0.00  0.82  0.00
  SMA8176                 1.00   0.00  0.00  0.00  0.00  0.00  0.00  1.00  0.00  0.00
  SMA8177                 1.00   0.00  1.00  0.00  0.00  0.00  0.00  0.00  0.00  0.00
  SMA8178                 1.00   0.00  0.00  0.00  1.00  0.00  0.00  0.00  0.89  0.00
  SMA8179                 1.00   0.00  0.00  0.00  1.00  0.00  0.00  0.00  1.00  0.00
  SMA8180                 1.00   0.01  0.00  0.00  0.99  0.00  0.00  0.00  0.98  0.00
  SMA8181                 1.00   0.01  0.99  0.00  0.00  0.00  0.00  0.00  0.00  0.00
  SMA8182                 1.00   1.00  0.00  0.00  0.00  0.00  0.00  0.00  0.00  0.00
  SMA8183                 1.00   0.00  1.00  0.00  0.00  0.00  0.00  0.00  0.00  0.00
  SMA8184                 1.00   1.00  0.00  0.00  0.00  0.00  0.00  0.00  0.00  0.00
  SMA8185                 1.00   1.00  0.00  0.00  0.00  0.00  0.00  0.00  0.00  0.00
  SMA8186                 1.00   1.00  0.00  0.00  0.00  0.00  0.00  0.00  0.00  0.00
  SMA8187                 1.00   0.00  0.00  0.00  0.02  0.98  0.00  0.00  1.00  0.00
  SMA8188                 1.00   0.00  0.00  0.00  0.98  0.02  0.00  0.00  0.00  0.00
  SMA8189                 1.00   0.00  0.00  0.00  0.01  0.98  0.00  0.00  1.00  0.00
  SMA8190                 1.00   0.00  0.00  0.00  1.00  0.00  0.00  0.00  1.00  0.00
  SMA8191                 1.00   0.00  0.00  0.00  1.00  0.00  0.00  0.00  0.99  0.00
  SMA8192                 1.00   0.00  0.00  0.00  0.00  0.00  0.00  1.00  0.00  0.00
  SMA8193                 1.00   0.01  0.00  0.00  0.00  0.00  0.00  0.99  0.00  0.00
  SMA8194                 1.00   0.01  0.00  0.00  0.98  0.00  0.00  0.01  0.98  0.00
  SMA8195                 1.00   0.00  0.00  0.00  1.00  0.00  0.00  0.00  0.00  0.00
  SMA8196                 1.00   0.00  0.00  0.00  0.00  0.00  0.00  1.00  0.00  0.00
  SMA8197                 1.00   0.00  0.00  0.00  0.99  0.00  0.00  0.01  0.78  0.00
  SMA8198                 1.00   0.00  0.00  0.00  1.00  0.00  0.00  0.00  0.98  0.00
  SMA8199                 1.00   0.00  0.00  0.00  0.04  0.96  0.00  0.00  0.00  0.00
  SMA8200                 1.00   0.00  0.00  0.00  0.00  0.99  0.00  0.00  1.00  0.00
  SMA8201                 1.00   0.00  0.00  0.00  0.01  0.99  0.00  0.00  0.01  0.00
  SMA8202                 1.00   0.00  0.00  0.00  0.00  0.65  0.00  0.34  0.65  0.00
  SMA8203                 1.00   0.00  0.00  0.00  0.00  0.00  0.00  1.00  0.00  0.00
  SMA8204                 1.00   0.00  0.00  0.00  0.00  0.00  0.00  1.00  0.00  0.00
  SMA8205                 1.00   0.01  0.00  0.00  0.00  0.00  0.00  0.99  0.00  0.00
  SMA8206                 1.00   0.00  0.00  0.00  0.98  0.00  0.00  0.02  0.98  0.00
  SMA8207                 1.00   0.00  0.00  0.00  0.02  0.98  0.00  0.00  0.00  0.00
  SMA8208                 1.00   0.00  0.00  0.00  1.00  0.00  0.00  0.00  1.00  0.00
  SMA8209                 1.00   0.00  0.00  0.00  0.99  0.01  0.00  0.00  1.00  0.00
  
  
  *************************
  Conduit Surcharge Summary
  *************************
  
  ----------------------------------------------------------------------------
                                                           Hours        Hours 
                         --------- Hours Full --------   Above Full   Capacity
  Conduit                Both Ends  Upstream  Dnstream   Normal Flow   Limited
  ----------------------------------------------------------------------------
  SMA3201                    32.80     36.58     33.62      2.74         2.34
  SMA3203                     0.01      0.01     47.11      0.01         0.01
  SMA3204                     0.02      0.02     35.91      0.25         0.01
  SMA3310                     0.01      0.01     41.42      0.01         0.01
  SMA3662                     0.01      0.01     47.77      0.01         0.01
  SMA4114                     0.01      0.01      1.57      0.01         0.01
  SMA4401                     0.01      0.01     41.59      0.01         0.01
  SMA4406                     0.01      0.01     47.65      0.01         0.01
  SMA6316                     6.75      6.81     45.64      2.26         1.92
  SMA6317                     0.48      0.48     45.72      2.04         0.01
  SMA6320                     6.55      6.91     46.38      2.28         0.12
  SMA6729                    40.67     41.45     41.33      5.83        19.57
  SMA6730                    33.41     33.62     41.34      0.11         0.41
  SMA6731                     0.01      0.01     36.58      0.01         0.01
  SMA6733                    42.48     43.07     46.41      0.01         0.21
  
  
  ***************
  Pumping Summary
  ***************
  
  ---------------------------------------------------------------------------------------------------------
                                                  Min       Avg       Max     Total     Power    % Time Off
                        Percent   Number of      Flow      Flow      Flow    Volume     Usage    Pump Curve
  Pump                 Utilized   Start-Ups       LPS       LPS       LPS  10^6 ltr     Kw-hr    Low   High
  ---------------------------------------------------------------------------------------------------------
  SPS3-1                   4.48         109      0.00     55.00     55.00     0.426     11.01    0.0    0.0
  SPS3-2                   0.01           1      0.00     55.00     55.00     0.001      0.01    0.0    0.0
  SPS4-1                   0.63          36      0.00     60.00     60.00     0.066      6.01    0.0    0.0
  SPS4-2                   0.00           1      0.00     60.00     60.00     0.000      0.00    0.0    0.0
  SPS5-1                   4.66         152      0.00    101.00    101.00     0.813     58.80    0.0    0.0
  SPS5-2                   0.01           1      0.00    101.00    101.00     0.001      0.01    0.0    0.0
  SPS7-1                  29.72          99      0.00      7.30      7.30     0.375     14.86    0.0    0.0
  SPS7-2                   0.00           0      0.00      0.00      0.00     0.000      0.00    0.0    0.0
  

  Analysis begun on:  Wed Jun 24 07:58:37 2026
  Analysis ended on:  Wed Jun 24 08:03:42 2026
  Total elapsed time: 00:05:05