
  EPA STORM WATER MANAGEMENT MODEL - VERSION 5.2 (Build 5.2.4)
  ------------------------------------------------------------

  Scenario Run :  BASE 
  WARNING 04: minimum elevation drop used for Conduit 15571
  WARNING 02: maximum depth increased for Node 5898
  WARNING 02: maximum depth increased for Node 5899
  WARNING 02: maximum depth increased for Node 602
  
  *************
  Element Count
  *************
  Number of rain gages ...... 1
  Number of subcatchments ... 172
  Number of nodes ........... 282
  Number of links ........... 316
  Number of pollutants ...... 0
  Number of land uses ....... 0
  
  
  ****************
  Raingage Summary
  ****************
                                                      Data       Recording
  Name                 Data Source                    Type       Interval 
  ------------------------------------------------------------------------
  BVILLE 14 10YRGAGE   BVILLE 14 10YR                 CUMULATIVE   6 min.
  
  
  ********************
  Subcatchment Summary
  ********************
  Name                       Area     Width   %Imperv    %Slope Rain Gage            Outlet              
  -----------------------------------------------------------------------------------------------------------
  10424#1                    0.76      0.02     28.30    8.9590 BVILLE 14 10YRGAGE   10424               
  10429#1                    1.41      0.02     34.80   12.8881 BVILLE 14 10YRGAGE   10429               
  10430#1                    0.52      0.01     45.80   12.6720 BVILLE 14 10YRGAGE   10430               
  10981#1                    0.78      0.01     20.10    9.0620 BVILLE 14 10YRGAGE   10981               
  11143#1                    1.69      0.01     20.20   13.8491 BVILLE 14 10YRGAGE   11143               
  11216#1                    1.55      0.01     57.70    9.5553 BVILLE 14 10YRGAGE   11216               
  11217#1                    3.03      0.02     39.10   10.7433 BVILLE 14 10YRGAGE   11217               
  11373#1                    0.61      0.01     57.60    8.8872 BVILLE 14 10YRGAGE   11373               
  11374#1                    0.52      0.01     45.80    8.0586 BVILLE 14 10YRGAGE   11374               
  11376#1                    2.27      0.02     52.40   11.0513 BVILLE 14 10YRGAGE   11376               
  11389#1                    2.55      0.02     65.80    6.8591 BVILLE 14 10YRGAGE   11389               
  11390#1                    0.92      0.01     72.30    9.4835 BVILLE 14 10YRGAGE   11390               
  12718#1                    4.73      0.02     32.70    5.4851 BVILLE 14 10YRGAGE   12718               
  13448#1                    1.50      0.01     27.10    8.9278 BVILLE 14 10YRGAGE   13448               
  13487#1                    0.15      0.00      0.00   13.5979 BVILLE 14 10YRGAGE   13487               
  13488#1                    0.06      0.00      6.30   10.3402 BVILLE 14 10YRGAGE   13488               
  13643#1                    1.34      0.01     34.00    8.7842 BVILLE 14 10YRGAGE   13643               
  14024#1                    2.38      0.01     32.80   11.6847 BVILLE 14 10YRGAGE   14024               
  14024#2                    7.60      0.02     64.70    8.7445 BVILLE 14 10YRGAGE   14024               
  14898#1                    3.26      0.02     46.40    9.3906 BVILLE 14 10YRGAGE   14898               
  15305#1                    0.10      0.00     99.30    3.7694 BVILLE 14 10YRGAGE   15305               
  15309#1                    0.57      0.01     71.30    4.8059 BVILLE 14 10YRGAGE   15309               
  15318#1                    0.29      0.00     20.20    5.6026 BVILLE 14 10YRGAGE   15318               
  15350#1                    0.73      0.01     57.70    8.0032 BVILLE 14 10YRGAGE   15350               
  15350#2                    0.52      0.00     77.80    6.6256 BVILLE 14 10YRGAGE   15350               
  15351#1                    0.55      0.01     65.90    6.5974 BVILLE 14 10YRGAGE   15351               
  2799#1                     0.66      0.01     17.00   11.9661 BVILLE 14 10YRGAGE   2799                
  2800#1                     1.38      0.01     42.30    9.7009 BVILLE 14 10YRGAGE   2800                
  2804#1                    10.23      0.03     27.10    8.1954 BVILLE 14 10YRGAGE   2804                
  2807#1                    10.31      0.03     31.40    7.2186 BVILLE 14 10YRGAGE   2807                
  2809#1                     2.00      0.02     19.80    9.0640 BVILLE 14 10YRGAGE   2809                
  2811#1                     2.04      0.02     33.80    6.7696 BVILLE 14 10YRGAGE   2811                
  2812#1                     9.79      0.02     17.80    5.8846 BVILLE 14 10YRGAGE   2812                
  2830#1                     3.85      0.02     29.80    7.6004 BVILLE 14 10YRGAGE   2830                
  3004#1                    16.84      0.02     23.50    6.4928 BVILLE 14 10YRGAGE   3004                
  3006#1                    12.22      0.02     17.40   11.1592 BVILLE 14 10YRGAGE   3006                
  3008#1                     2.65      0.02     36.10    5.4038 BVILLE 14 10YRGAGE   3008                
  3021#1                     0.37      0.01     31.90    4.7744 BVILLE 14 10YRGAGE   3021                
  5157#1                     4.77      0.02     34.60    8.4027 BVILLE 14 10YRGAGE   5157                
  5812#1                     6.23      0.02     33.00    8.9987 BVILLE 14 10YRGAGE   5812                
  5814#1                     3.40      0.01     42.50    9.9194 BVILLE 14 10YRGAGE   5814                
  5818#1                     2.19      0.01     46.30    9.5763 BVILLE 14 10YRGAGE   5818                
  5822#1                     1.16      0.01     61.60   10.9752 BVILLE 14 10YRGAGE   5822                
  5824#1                    11.66      0.03     48.40    9.7193 BVILLE 14 10YRGAGE   5824                
  5840#1                    25.48      0.05     19.70    9.3923 BVILLE 14 10YRGAGE   5840                
  5841#1                     0.64      0.02     77.90   11.2517 BVILLE 14 10YRGAGE   5841                
  5845#1                     3.38      0.01     22.50   10.1769 BVILLE 14 10YRGAGE   5845                
  5893#1                     1.79      0.01     69.80    7.4705 BVILLE 14 10YRGAGE   5893                
  5894#1                     0.12      0.00     22.20   10.3527 BVILLE 14 10YRGAGE   5894                
  5895#1                     1.06      0.01     38.60    6.5384 BVILLE 14 10YRGAGE   5895                
  5896#1                     0.12      0.00    100.00    3.0278 BVILLE 14 10YRGAGE   5896                
  5898#1                     2.56      0.01     42.10    8.8180 BVILLE 14 10YRGAGE   5898                
  5899#1                     3.55      0.01     61.80    8.5651 BVILLE 14 10YRGAGE   5899                
  5902#1                     2.46      0.01     81.80    5.4015 BVILLE 14 10YRGAGE   5902                
  5911#1                     1.62      0.01     78.00    5.2641 BVILLE 14 10YRGAGE   5911                
  5918#1                     0.84      0.01     78.20    4.8915 BVILLE 14 10YRGAGE   5918                
  5921#1                     0.66      0.01     96.80    3.4345 BVILLE 14 10YRGAGE   5921                
  5935#1                     9.11      0.02     30.10   10.5108 BVILLE 14 10YRGAGE   5935                
  5993#1                     6.83      0.02     26.50    9.8100 BVILLE 14 10YRGAGE   5993                
  5994#1                     1.79      0.02     34.90    9.4549 BVILLE 14 10YRGAGE   5994                
  6012#1                     9.45      0.02     38.50    8.6897 BVILLE 14 10YRGAGE   6012                
  6016#1                     2.48      0.02     55.70    5.7843 BVILLE 14 10YRGAGE   6016                
  602#1                      7.24      0.02     52.60    6.2851 BVILLE 14 10YRGAGE   602                 
  6090#1                     0.17      0.00     52.70    4.0577 BVILLE 14 10YRGAGE   6090                
  6123#1                     1.32      0.01     60.00    5.3208 BVILLE 14 10YRGAGE   6123                
  6127#1                     0.89      0.01     54.50    8.2266 BVILLE 14 10YRGAGE   6127                
  6130#1                     4.38      0.02     63.50    5.8807 BVILLE 14 10YRGAGE   6130                
  6133#1                     0.63      0.01     47.50    4.7747 BVILLE 14 10YRGAGE   6133                
  6139#1                     0.78      0.01     66.90    6.7647 BVILLE 14 10YRGAGE   6139                
  6141#1                     1.28      0.01     24.10    6.8231 BVILLE 14 10YRGAGE   6141                
  6144#1                     0.71      0.01     54.60    4.6838 BVILLE 14 10YRGAGE   6144                
  6149#1                     1.41      0.01     25.50    7.3797 BVILLE 14 10YRGAGE   6149                
  6150#1                     0.65      0.01     48.10    3.5850 BVILLE 14 10YRGAGE   6150                
  6152#1                     2.22      0.01      2.10    4.9899 BVILLE 14 10YRGAGE   6152                
  6154#1                     0.35      0.00      4.60    4.6527 BVILLE 14 10YRGAGE   6154                
  6156#1                     0.15      0.00     30.50    3.7864 BVILLE 14 10YRGAGE   6156                
  6158#1                     0.21      0.00     42.10    4.0429 BVILLE 14 10YRGAGE   6158                
  6168#1                     3.38      0.01     88.50    4.3057 BVILLE 14 10YRGAGE   6168                
  6171#1                     2.73      0.01     90.70    3.1950 BVILLE 14 10YRGAGE   6171                
  6176#1                     0.29      0.00     56.60    3.8848 BVILLE 14 10YRGAGE   6176                
  6178#1                     1.50      0.01     62.70    5.3703 BVILLE 14 10YRGAGE   6178                
  6222#1                     8.46      0.02     52.00    7.2862 BVILLE 14 10YRGAGE   6222                
  6238#1                     0.15      0.00     83.80    5.4609 BVILLE 14 10YRGAGE   6238                
  6239#1                     1.66      0.01     36.90   11.5092 BVILLE 14 10YRGAGE   6239                
  6246#1                    12.05      0.05     38.60   13.7708 BVILLE 14 10YRGAGE   6246                
  6247#1                     2.81      0.02     42.10   19.2588 BVILLE 14 10YRGAGE   6247                
  6248#1                     1.36      0.02     44.30    7.2836 BVILLE 14 10YRGAGE   6248                
  6251#1                     1.11      0.01     45.80    6.3209 BVILLE 14 10YRGAGE   6251                
  6253#1                     1.82      0.02     42.90    7.6673 BVILLE 14 10YRGAGE   6253                
  6254#1                     7.79      0.03     24.40   19.0345 BVILLE 14 10YRGAGE   6254                
  6258#1                     4.73      0.02     36.70   12.5959 BVILLE 14 10YRGAGE   6258                
  6270#1                     1.89      0.01     43.30    6.6033 BVILLE 14 10YRGAGE   6270                
  6272#1                     6.62      0.01     52.00    5.1867 BVILLE 14 10YRGAGE   6272                
  6300#1                     3.04      0.01     40.60    6.0965 BVILLE 14 10YRGAGE   6300                
  6305#1                     8.77      0.02     30.60    8.7599 BVILLE 14 10YRGAGE   6305                
  6309#1                     7.66      0.01     39.30    7.3118 BVILLE 14 10YRGAGE   6309                
  6316#1                     6.79      0.01     53.10    6.5482 BVILLE 14 10YRGAGE   6316                
  6325#1                     5.57      0.01     60.60    5.4937 BVILLE 14 10YRGAGE   6325                
  6327#1                     5.35      0.02     55.90    7.2432 BVILLE 14 10YRGAGE   6327                
  6357#1                     0.67      0.00     51.80    7.9743 BVILLE 14 10YRGAGE   6357                
  6360#1                     1.07      0.01     42.50    8.4890 BVILLE 14 10YRGAGE   6360                
  6362#1                    11.81      0.02     57.30    5.9994 BVILLE 14 10YRGAGE   6362                
  6371#1                     6.17      0.02     47.40    7.0818 BVILLE 14 10YRGAGE   6371                
  6381#1                     5.33      0.03     32.10    8.4709 BVILLE 14 10YRGAGE   6381                
  6487#1                     2.21      0.01     65.30    8.7848 BVILLE 14 10YRGAGE   6487                
  6490#1                     1.50      0.01     54.60    8.6097 BVILLE 14 10YRGAGE   6490                
  6499#1                     5.15      0.02     36.00    8.5624 BVILLE 14 10YRGAGE   6499                
  6505#1                     0.64      0.01     42.60    5.0981 BVILLE 14 10YRGAGE   6505                
  6509#1                     1.07      0.01     46.50    6.9014 BVILLE 14 10YRGAGE   6509                
  6511#1                     0.57      0.01     89.70    4.8596 BVILLE 14 10YRGAGE   6511                
  6514#1                     0.73      0.01     56.30    5.9516 BVILLE 14 10YRGAGE   6514                
  6517#1                     2.91      0.01     87.90    3.7198 BVILLE 14 10YRGAGE   6517                
  6545#1                    12.49      0.01     64.50    5.0082 BVILLE 14 10YRGAGE   6545                
  6547#1                     2.91      0.01     44.20    7.5542 BVILLE 14 10YRGAGE   6547                
  6558#1                     0.68      0.01     56.70   10.7633 BVILLE 14 10YRGAGE   6558                
  6559#1                     1.74      0.01     81.10    8.2479 BVILLE 14 10YRGAGE   6559                
  6566#1                     1.96      0.01     76.20    8.7566 BVILLE 14 10YRGAGE   6566                
  6569#1                     3.45      0.01     33.10    6.4842 BVILLE 14 10YRGAGE   6569                
  6608#1                     0.60      0.01     48.30    7.2088 BVILLE 14 10YRGAGE   6608                
  6609#1                     0.46      0.01     80.00    5.8082 BVILLE 14 10YRGAGE   6609                
  6612#1                     5.49      0.02     35.20    7.9015 BVILLE 14 10YRGAGE   6612                
  6613#1                     5.31      0.02     39.00    7.2662 BVILLE 14 10YRGAGE   6613                
  6614#1                     0.12      0.00     34.20    4.9459 BVILLE 14 10YRGAGE   6614                
  6617#1                     2.33      0.01     36.00    6.4652 BVILLE 14 10YRGAGE   6617                
  6618#1                     0.48      0.01     66.30    5.2165 BVILLE 14 10YRGAGE   6618                
  6644#1                     1.84      0.03     31.50    7.1816 BVILLE 14 10YRGAGE   6644                
  6645#1                     1.21      0.01     43.50    7.9999 BVILLE 14 10YRGAGE   6645                
  6688#1                     0.62      0.01     79.20    7.6385 BVILLE 14 10YRGAGE   6688                
  6690#1                     3.65      0.02     24.50   10.7571 BVILLE 14 10YRGAGE   6690                
  6691#1                     0.84      0.01     30.80    8.0882 BVILLE 14 10YRGAGE   6691                
  6697#1                     0.81      0.01     38.60    6.7650 BVILLE 14 10YRGAGE   6697                
  6700#1                     2.02      0.01     31.70    9.7295 BVILLE 14 10YRGAGE   6700                
  6707#1                     0.63      0.01     46.40    3.8592 BVILLE 14 10YRGAGE   6707                
  6708#1                     6.52      0.02     38.20    7.4177 BVILLE 14 10YRGAGE   6708                
  6717#1                     1.32      0.01     47.90    6.5872 BVILLE 14 10YRGAGE   6717                
  6718#1                     4.19      0.01     51.50    6.5324 BVILLE 14 10YRGAGE   6718                
  6725#1                     4.50      0.01     43.10    8.3174 BVILLE 14 10YRGAGE   6725                
  6726#1                     2.44      0.02     49.70    6.7404 BVILLE 14 10YRGAGE   6726                
  6728#1                     0.61      0.01     68.60    9.6042 BVILLE 14 10YRGAGE   6728                
  6785#1                     0.63      0.01     78.30    4.9187 BVILLE 14 10YRGAGE   6785                
  LA1-A#1                    8.60      0.02     45.80   12.1235 BVILLE 14 10YRGAGE   LA1-A               
  LA2-A#1                   16.41      0.03     31.00   12.8648 BVILLE 14 10YRGAGE   LA2-A               
  LA2-B#1                    2.58      0.01     59.80    5.9696 BVILLE 14 10YRGAGE   LA2-B               
  LA2-C#1                    7.59      0.03     73.20    6.3921 BVILLE 14 10YRGAGE   LA2-C               
  LA3-A#1                   19.32      0.03     10.40   17.5119 BVILLE 14 10YRGAGE   LA3-A               
  LA3-B#1                   13.32      0.05     27.50   11.2222 BVILLE 14 10YRGAGE   LA3-B               
  LA3-C#1                    7.70      0.02     44.80   10.6997 BVILLE 14 10YRGAGE   LA3-C               
  LA3-D#1                    1.51      0.01      3.40   10.6246 BVILLE 14 10YRGAGE   LA3-D               
  LA3-E#1                    1.12      0.00     22.80   14.3267 BVILLE 14 10YRGAGE   LA3-E               
  LA3-F#1                    1.56      0.01     69.30    6.9208 BVILLE 14 10YRGAGE   LA3-F               
  LA3-I#1                    8.88      0.02      4.90    9.6747 BVILLE 14 10YRGAGE   LA3-I               
  LA3-J#1                    0.67      0.00     15.10    7.2488 BVILLE 14 10YRGAGE   LA3-J               
  LA3-R#1                    0.70      0.01      2.20    7.7142 BVILLE 14 10YRGAGE   LA3-R               
  LA3-S#1                    1.25      0.00      0.00    6.7128 BVILLE 14 10YRGAGE   LA3-S               
  LA3-T#1                    0.88      0.00      7.50    7.7080 BVILLE 14 10YRGAGE   LA3-T               
  LA3-U#1                    1.86      0.01     21.20    8.4624 BVILLE 14 10YRGAGE   LA3-U               
  LA3-V#1                    1.12      0.00     54.10   11.5784 BVILLE 14 10YRGAGE   LA3-V               
  LA3-W#1                    1.71      0.01     82.90    4.8475 BVILLE 14 10YRGAGE   LA3-W               
  LA3-X#1                    0.70      0.01     62.40    6.3543 BVILLE 14 10YRGAGE   LA3-X               
  LA4-A#1                  333.77      0.04      6.20    9.5143 BVILLE 14 10YRGAGE   LA4-A               
  LA4-B#1                   37.99      0.05     15.00    4.6576 BVILLE 14 10YRGAGE   LA4-B               
  LA4-C#1                   20.12      0.02      1.60   10.2008 BVILLE 14 10YRGAGE   LA4-C               
  LA4-D#1                   10.33      0.02      5.10    8.4624 BVILLE 14 10YRGAGE   LA4-D               
  LA4-E#1                    2.45      0.01      0.10   10.0040 BVILLE 14 10YRGAGE   LA4-E               
  LA4-F#1                    3.77      0.01      0.50   11.3311 BVILLE 14 10YRGAGE   LA4-F               
  LA4-G#1                   13.96      0.02      1.20   12.7920 BVILLE 14 10YRGAGE   LA4-G               
  LA5-A#1                    6.68      0.02     15.60   13.7091 BVILLE 14 10YRGAGE   LA5-A               
  LA6-A#1                    7.75      0.02     15.70   13.8787 BVILLE 14 10YRGAGE   LA6-A               
  LA7-A#1                    3.49      0.01     11.30   20.3032 BVILLE 14 10YRGAGE   LA7-A               
  NODE694#1                  4.96      0.02     55.30   15.5800 BVILLE 14 10YRGAGE   NODE694             
  SP8-B#1                    5.71      0.02     45.30    7.8251 BVILLE 14 10YRGAGE   SP8-B               
  SP8-C#1                    1.62      0.01      2.90   14.2857 BVILLE 14 10YRGAGE   SP8-C               
  
  
  ************
  Node Summary
  ************
                                           Invert      Max.    Ponded    External
  Name                 Type                 Elev.     Depth      Area    Inflow  
  -------------------------------------------------------------------------------
  10424                JUNCTION           1008.44      8.27       0.0
  10429                JUNCTION           1009.09      3.54       0.0
  10430                JUNCTION           1009.25      3.41       0.0
  10981                JUNCTION           1007.37     20.19       0.0
  11120                JUNCTION           1008.00     11.47       0.0
  11143                JUNCTION           1008.97      5.45       0.0
  11144                JUNCTION           1008.94      7.07       0.0
  11216                JUNCTION           1021.21      8.48       0.0
  11217                JUNCTION            964.18     13.09       0.0
  11218                JUNCTION            957.46     24.40       0.0
  11373                JUNCTION           1046.20      6.00       0.0
  11374                JUNCTION           1046.50      4.68       0.0
  11376                JUNCTION           1047.50      6.02       0.0
  11389                JUNCTION           1042.72      6.94       0.0
  11390                JUNCTION           1043.30      5.78       0.0
  11392                JUNCTION           1028.20     19.43       0.0
  12717                JUNCTION           1005.50      5.01       0.0
  12718                JUNCTION            986.00     21.56       0.0
  13164                JUNCTION            959.50     13.99       0.0
  13382                JUNCTION           1002.40      5.21       0.0
  13448                JUNCTION           1007.05     20.64       0.0
  13487                JUNCTION            961.22      8.04       0.0
  13488                JUNCTION            964.40      6.87       0.0
  13643                JUNCTION            963.90     10.78       0.0
  13926                JUNCTION           1007.08      5.34       0.0
  13927                JUNCTION           1005.79      5.11       0.0
  13928                JUNCTION           1004.22      7.65       0.0
  13929                JUNCTION           1004.22      7.74       0.0
  13941                JUNCTION           1004.20      5.48       0.0
  14024                JUNCTION              0.00    998.25       0.0
  14732                JUNCTION           1044.04     14.66       0.0
  14897                JUNCTION           1030.00     13.04       0.0
  14898                JUNCTION           1045.87      8.01       0.0
  15305                JUNCTION           1037.87      8.93       0.0
  15309                JUNCTION           1046.13      3.35       0.0
  15318                JUNCTION           1044.65      3.60       0.0
  15321                JUNCTION           1045.18      3.35       0.0
  15350                JUNCTION           1042.68      6.38       0.0
  15351                JUNCTION           1041.48      7.89       0.0
  2799                 JUNCTION            970.29      5.97       0.0
  2800                 JUNCTION            971.38      4.83       0.0
  2804                 JUNCTION            989.32      8.50       0.0
  2807                 JUNCTION           1001.15      5.74       0.0
  2809                 JUNCTION           1000.00      6.44       0.0
  2811                 JUNCTION           1000.39      5.68       0.0
  2812                 JUNCTION            994.00     17.59       0.0
  2829                 JUNCTION            968.71      8.30       0.0
  2830                 JUNCTION            980.50      6.52       0.0
  3004                 JUNCTION            976.29      5.61       0.0
  3006                 JUNCTION            957.98      6.13       0.0
  3007                 JUNCTION            988.71      6.51       0.0
  3008                 JUNCTION            997.67      6.27       0.0
  3021                 JUNCTION            997.77      5.95       0.0
  4427                 JUNCTION            957.10      9.79       0.0
  5157                 JUNCTION            964.22     11.43       0.0
  5240                 JUNCTION            961.88      3.97       0.0
  5703                 JUNCTION            994.00     14.43       0.0
  5812                 JUNCTION           1040.35      4.24       0.0
  5813                 JUNCTION           1040.10      4.42       0.0
  5814                 JUNCTION           1039.95      4.36       0.0
  5817                 JUNCTION           1039.69      8.36       0.0
  5818                 JUNCTION           1036.25     12.67       0.0
  5822                 JUNCTION           1039.00     10.75       0.0
  5824                 JUNCTION           1042.68     12.58       0.0
  5840                 JUNCTION           1045.47      8.85       0.0
  5841                 JUNCTION           1045.57      8.10       0.0
  5845                 JUNCTION           1049.70      4.60       0.0
  5846                 JUNCTION           1051.97      5.91       0.0
  5893                 JUNCTION            971.21     12.04       0.0
  5894                 JUNCTION            971.45      7.35       0.0
  5895                 JUNCTION            972.15      6.44       0.0
  5896                 JUNCTION            973.66      4.95       0.0
  5898                 JUNCTION            973.72      4.92       0.0
  5899                 JUNCTION            973.79      4.92       0.0
  5902                 JUNCTION            970.00      5.70       0.0
  5911                 JUNCTION            962.60      8.16       0.0
  5915                 JUNCTION            954.94     11.47       0.0
  5918                 JUNCTION            961.30      7.07       0.0
  5921                 JUNCTION            960.72      6.76       0.0
  5929                 JUNCTION            959.40      8.94       0.0
  5935                 JUNCTION           1057.08      7.93       0.0
  5940                 JUNCTION            954.10     18.40       0.0
  5941                 JUNCTION            953.48     22.10       0.0
  5980                 JUNCTION           1035.50     12.90       0.0
  5981                 JUNCTION           1034.00     14.90       0.0
  5982                 JUNCTION           1030.00     15.80       0.0
  5986                 JUNCTION           1026.50     18.20       0.0
  5993                 JUNCTION           1059.10      7.21       0.0
  5994                 JUNCTION           1060.66      6.44       0.0
  6012                 JUNCTION           1022.00     14.75       0.0
  6016                 JUNCTION           1061.74      6.52       0.0
  602                  JUNCTION            997.65      8.03       0.0
  6090                 JUNCTION           1041.92      8.28       0.0
  6123                 JUNCTION           1057.70      5.98       0.0
  6127                 JUNCTION           1018.40     25.46       0.0
  6130                 JUNCTION           1042.18     11.04       0.0
  6131                 JUNCTION           1040.50     10.91       0.0
  6132                 JUNCTION           1040.10     11.40       0.0
  6133                 JUNCTION           1039.92      7.27       0.0
  6134                 JUNCTION           1037.50     10.05       0.0
  6135                 JUNCTION           1031.60     15.22       0.0
  6136                 JUNCTION           1040.62      6.52       0.0
  6139                 JUNCTION           1041.52      6.54       0.0
  6141                 JUNCTION           1041.74      5.43       0.0
  6144                 JUNCTION           1049.83      6.52       0.0
  6149                 JUNCTION           1048.64      6.47       0.0
  6150                 JUNCTION           1047.91      7.57       0.0
  6151                 JUNCTION           1051.01      5.09       0.0
  6152                 JUNCTION           1051.75      3.87       0.0
  6154                 JUNCTION           1058.53      4.27       0.0
  6156                 JUNCTION           1057.83      6.83       0.0
  6158                 JUNCTION           1056.33      6.93       0.0
  6168                 JUNCTION           1037.46      6.61       0.0
  6171                 JUNCTION              0.00   1047.77       0.0
  6172                 JUNCTION           1027.00     20.27       0.0
  6174                 JUNCTION           1027.00     15.37       0.0
  6175                 JUNCTION           1026.90     16.50       0.0
  6176                 JUNCTION           1038.80      8.42       0.0
  6177                 JUNCTION           1038.90      8.57       0.0
  6178                 JUNCTION           1036.80      9.43       0.0
  6222                 JUNCTION           1048.49      9.61       0.0
  6238                 JUNCTION           1032.89      3.32       0.0
  6239                 JUNCTION           1031.50      4.96       0.0
  6246                 JUNCTION           1021.10     14.40       0.0
  6247                 JUNCTION           1039.70      6.00       0.0
  6248                 JUNCTION           1041.05      1.50       0.0
  6250                 JUNCTION           1023.41      6.00       0.0
  6251                 JUNCTION           1029.53      1.50       0.0
  6253                 JUNCTION           1024.20      4.54       0.0
  6254                 JUNCTION           1026.40      8.01       0.0
  6258                 JUNCTION           1011.60     17.77       0.0
  6261                 JUNCTION           1023.00     15.22       0.0
  6262                 JUNCTION           1042.07     14.35       0.0
  6270                 JUNCTION           1046.80      6.14       0.0
  6272                 JUNCTION           1047.84      4.71       0.0
  6300                 JUNCTION           1013.55     13.50       0.0
  6305                 JUNCTION           1010.80      8.97       0.0
  6306                 JUNCTION           1009.30      5.92       0.0
  6309                 JUNCTION           1011.50      2.57       0.0
  6312                 JUNCTION           1010.78      4.30       0.0
  6316                 JUNCTION           1009.08      9.77       0.0
  6325                 JUNCTION           1006.00     16.08       0.0
  6327                 JUNCTION           1017.50      8.51       0.0
  6329                 JUNCTION           1007.28     21.85       0.0
  6330                 JUNCTION           1007.82     22.33       0.0
  6356                 JUNCTION           1001.15     13.56       0.0
  6357                 JUNCTION           1004.62      9.91       0.0
  6360                 JUNCTION           1008.84      6.43       0.0
  6362                 JUNCTION           1012.70      6.70       0.0
  6371                 JUNCTION           1025.50      5.01       0.0
  6372                 JUNCTION           1009.94     20.20       0.0
  6373                 JUNCTION           1010.52     22.12       0.0
  6381                 JUNCTION           1014.42      6.82       0.0
  6487                 JUNCTION            980.13      5.66       0.0
  6490                 JUNCTION            978.28      6.96       0.0
  6497                 JUNCTION            956.97     19.67       0.0
  6498                 JUNCTION            957.40     21.33       0.0
  6499                 JUNCTION            958.27     17.85       0.0
  6504                 JUNCTION            956.06     13.87       0.0
  6505                 JUNCTION            959.53      8.88       0.0
  6509                 JUNCTION            959.08      9.53       0.0
  6511                 JUNCTION            961.07      5.19       0.0
  6513                 JUNCTION            960.32      6.30       0.0
  6514                 JUNCTION            961.07      5.10       0.0
  6516                 JUNCTION            964.02      5.20       0.0
  6517                 JUNCTION            964.80     10.91       0.0
  6525                 JUNCTION            957.23     16.39       0.0
  6545                 JUNCTION           1006.41     17.13       0.0
  6547                 JUNCTION            993.00      6.60       0.0
  6551                 JUNCTION           1000.72      7.77       0.0
  6558                 JUNCTION           1004.40      6.00       0.0
  6559                 JUNCTION           1005.55      4.45       0.0
  6560                 JUNCTION           1004.00      7.00       0.0
  6561                 JUNCTION           1002.50      9.70       0.0
  6566                 JUNCTION           1004.74      7.37       0.0
  6569                 JUNCTION           1005.95      8.30       0.0
  6572                 JUNCTION           1001.68      3.27       0.0
  6608                 JUNCTION            990.80      8.09       0.0
  6609                 JUNCTION            993.18      5.59       0.0
  6612                 JUNCTION           1007.51      5.60       0.0
  6613                 JUNCTION           1002.39      7.61       0.0
  6614                 JUNCTION           1007.57      5.53       0.0
  6615                 JUNCTION           1008.00      5.25       0.0
  6617                 JUNCTION           1007.89      3.60       0.0
  6618                 JUNCTION           1007.43      4.18       0.0
  6644                 JUNCTION            961.16     13.50       0.0
  6645                 JUNCTION            961.58     13.20       0.0
  6688                 JUNCTION            981.00      7.88       0.0
  6690                 JUNCTION            969.69      8.52       0.0
  6691                 JUNCTION            967.52      9.48       0.0
  6697                 JUNCTION            953.98     10.12       0.0
  6700                 JUNCTION            960.47      4.43       0.0
  6701                 JUNCTION            961.33      7.77       0.0
  6702                 JUNCTION            954.02      9.86       0.0
  6707                 JUNCTION            954.23     10.38       0.0
  6708                 JUNCTION            954.90     10.26       0.0
  6714                 JUNCTION            955.57      7.68       0.0
  6717                 JUNCTION            999.98      6.03       0.0
  6718                 JUNCTION           1008.61      8.61       0.0
  6725                 JUNCTION            990.38     13.24       0.0
  6726                 JUNCTION            974.02     16.59       0.0
  6728                 JUNCTION            966.10     13.50       0.0
  6785                 JUNCTION           1015.74     20.66       0.0
  6786                 JUNCTION           1008.57     11.12       0.0
  6787                 JUNCTION           1008.57     11.61       0.0
  D1                   JUNCTION           1007.63     12.56       0.0
  D2                   JUNCTION           1006.05     37.90       0.0
  NODE692              JUNCTION            979.94      6.77       0.0
  NODE693              JUNCTION            978.50      6.04       0.0
  NODE694              JUNCTION            973.40     11.90       0.0
  NODE696              JUNCTION            990.00     11.66       0.0
  NODE697              JUNCTION            982.00      8.43       0.0
  NODE701              JUNCTION           1009.60      5.88       0.0
  NODE710              JUNCTION            963.52      7.48       0.0
  NODE711              JUNCTION            963.19      8.07       0.0
  NODE712              JUNCTION            961.64      8.34       0.0
  NODE734              JUNCTION            992.30      6.00       0.0
  NODE 10              JUNCTION            954.98     11.43       0.0
  NODE 11              JUNCTION            971.00     12.02       0.0
  NODE 12              JUNCTION            965.50      6.02       0.0
  NODE 13              JUNCTION            992.62     14.15       0.0
  NODE 14              JUNCTION           1009.13      6.50       0.0
  NODE 15              JUNCTION           1027.14     18.51       0.0
  NODE 16              JUNCTION           1057.17      7.24       0.0
  NODE 17              JUNCTION           1056.89      7.46       0.0
  NODE 19              JUNCTION           1040.66     10.30       0.0
  NODE 2               JUNCTION            970.73      8.83       0.0
  NODE 20              JUNCTION           1015.80     19.33       0.0
  NODE 21              JUNCTION           1010.92     18.51       0.0
  NODE 22              JUNCTION           1009.12     22.41       0.0
  NODE 23              JUNCTION           1008.27     30.78       0.0
  NODE 25              JUNCTION           1006.19     14.97       0.0
  NODE 3               JUNCTION            966.58     13.84       0.0
  NODE 4               JUNCTION            957.76      4.99       0.0
  NODE 6               JUNCTION            960.12      7.74       0.0
  NODE 7               JUNCTION            964.50      5.72       0.0
  NODE716              OUTFALL            1039.64      1.25       0.0
  NODE718              OUTFALL            1042.06      1.25       0.0
  NODE726              OUTFALL             962.00      0.00       0.0
  NODE727              OUTFALL            1058.00      0.00       0.0
  NODE728              OUTFALL            1010.00      0.00       0.0
  NODE729              OUTFALL            1006.00      0.00       0.0
  NODE730              OUTFALL             994.00      0.00       0.0
  NODE731              OUTFALL             982.00      0.00       0.0
  NODE732              OUTFALL            1010.00      0.00       0.0
  NODE733              OUTFALL            1010.00      0.00       0.0
  NODE820              OUTFALL            1028.00      0.00       0.0
  NODE 1               OUTFALL             989.83      1.50       0.0
  OFFSITE1             OUTFALL            1063.96      1.00       0.0
  OFFSITE2             OUTFALL            1044.15      1.00       0.0
  LA1-A                STORAGE            1015.50      1.50       0.0
  LA2-A                STORAGE             956.50     13.50       0.0
  LA2-B                STORAGE             964.00      6.00       0.0
  LA2-C                STORAGE             959.00      9.00       0.0
  LA3-A                STORAGE             955.57      8.43       0.0
  LA3-B                STORAGE            1022.13      6.87       0.0
  LA3-C                STORAGE            1025.80      8.20       0.0
  LA3-D                STORAGE            1044.12      5.88       0.0
  LA3-E                STORAGE            1053.00      6.00       0.0
  LA3-F                STORAGE            1033.60      3.40       0.0
  LA3-H                STORAGE            1042.06      3.94       0.0
  LA3-I                STORAGE             955.71      8.29       0.0
  LA3-J                STORAGE            1064.00      2.00       0.0
  LA3-R                STORAGE            1040.10      6.73       0.0
  LA3-S                STORAGE            1044.84     20.16       0.0
  LA3-T                STORAGE            1041.92     21.08       0.0
  LA3-U                STORAGE            1044.07     14.93       0.0
  LA3-V                STORAGE            1043.11      3.89       0.0
  LA3-W                STORAGE            1040.26      6.89       0.0
  LA3-X                STORAGE            1038.90      8.80       0.0
  LA4-A                STORAGE             953.00     10.00       0.0
  LA4-B                STORAGE             992.00      3.00       0.0
  LA4-C                STORAGE            1003.00      4.00       0.0
  LA4-D                STORAGE            1001.00     10.00       0.0
  LA4-E                STORAGE             979.00      4.00       0.0
  LA4-F                STORAGE            1008.00      3.00       0.0
  LA4-G                STORAGE            1004.00      7.00       0.0
  LA5-A                STORAGE            1006.15      8.85       0.0
  LA6-A                STORAGE            1007.34      8.66       0.0
  LA7-A                STORAGE            1006.00     10.33       0.0
  SP8-B                STORAGE            1036.00      3.00       0.0
  SP8-C                STORAGE            1036.02      5.98       0.0
  
  
  ************
  Link Summary
  ************
  Name             From Node        To Node          Type            Length    %Slope Roughness
  ---------------------------------------------------------------------------------------------
  10574            14897            5703             CONDUIT          314.5   10.0997    0.0130
  10575            5703             13164            CONDUIT          638.3    5.2871    0.0130
  10701            6090             6131             CONDUIT          107.3    1.3233    0.0130
  10702            6131             6132             CONDUIT           55.6    0.7196    0.0130
  10703            6132             6177             CONDUIT          106.9    1.1222    0.0130
  10704            6177             6178             CONDUIT           60.6    3.4666    0.0130
  10705            6178             5980             CONDUIT          100.7    1.2905    0.0130
  10706            5980             5981             CONDUIT           58.4    2.5683    0.0130
  10707            5981             5982             CONDUIT          159.3    2.5123    0.0130
  10708            5982             6175             CONDUIT           85.3    3.6363    0.0130
  10709            6175             6174             CONDUIT           42.8   -0.2335    0.0130
  10710            6174             LA3-C            CONDUIT           65.8    1.8236    0.0130
  10711            6254             6253             CONDUIT           94.3    2.3448    0.0130
  10712            6253             LA3-B            CONDUIT          112.9    1.8341    0.0130
  10713            6251             6250             CONDUIT           99.3    6.1771    0.0130
  11003            LA1-A            NODE 1           CONDUIT          108.7   24.2915    0.0130
  1157.1           6362             6357             CONDUIT          268.3    2.1921    0.0130
  1157.2           6362             6357             CONDUIT          268.3    1.8117    0.0110
  1160.1           5918             5921             CONDUIT           65.9    0.5764    0.0130
  1160.2           5918             5921             CONDUIT           65.9    1.3591    0.0110
  11609            11389            LA3-H            CONDUIT           38.7    0.5680    0.0130
  11612            11390            11389            CONDUIT          104.6    0.5547    0.0130
  11613            LA3-H            11392            CONDUIT           23.6   -1.8642    0.0130
  11614            11392            LA3-C            CONDUIT           93.8    2.0251    0.0130
  1179.1           6381             6360             CONDUIT          282.0    1.9794    0.0130
  1179.2           6381             6360             CONDUIT          282.0    2.1214    0.0110
  1180.1           6725             6726             CONDUIT          308.3    5.2494    0.0130
  1180.2           6725             6726             CONDUIT          308.3    4.6955    0.0110
  1181.1           6726             6728             CONDUIT          263.2    3.0102    0.0130
  1181.2           6726             6728             CONDUIT          263.2    4.4942    0.0110
  1184.1           6547             6487             CONDUIT          361.3    3.4617    0.0130
  1184.2           6547             6487             CONDUIT          361.3    3.7312    0.0110
  1187.1           602              6547             CONDUIT          258.2    1.8014    0.0130
  1187.2           602              6547             CONDUIT          265.0    2.2949    0.0300
  11938            NODE694          NODE 4           CONDUIT          118.1   10.1314    0.0130
  11939            NODE 4           LA2-A            CONDUIT           25.7    1.0112    0.0130
  11940            NODE693          NODE694          CONDUIT           85.1    6.0015    0.0130
  11942            NODE697          NODE692          CONDUIT           92.1    2.2381    0.0130
  11943            NODE696          NODE697          CONDUIT           69.4   11.6088    0.0130
  11946            6561             NODE696          CONDUIT          143.5   12.4651    0.0130
  1220.1           6327             6325             CONDUIT          296.3    0.8438    0.0130
  1220.2           6327             6325             CONDUIT          252.0    0.8889    0.0110
  12266            6171             6172             CONDUIT          146.8    0.2725    0.0130
  12267            6172             5986             CONDUIT          180.6    0.2768    0.0130
  12268            5986             LA3-C            CONDUIT           99.1    0.3028    0.0130
  12271            6176             5981             CONDUIT           61.8    7.7865    0.0130
  1238.1           6708             6707             CONDUIT           83.2    0.8053    0.0130
  1238.2           6708             6707             CONDUIT           83.2    1.4088    0.0110
  12448            6558             6560             CONDUIT           27.0    1.4816    0.0130
  12449            6560             6561             CONDUIT           75.0    2.0004    0.0130
  1249.1           2800             2799             CONDUIT           25.2    4.3276    0.0130
  1249.2           2800             2799             CONDUIT           25.2   -0.8330    0.0110
  1250.1           2830             2800             CONDUIT          181.0    5.0438    0.0130
  1250.2           2830             2800             CONDUIT          183.0    6.0053    0.0300
  1253.1           5845             14898            CONDUIT           34.5    2.0282    0.0130
  1253.2           5845             14898            CONDUIT           34.5    1.2167    0.0110
  1273.1           5898             5896             CONDUIT            7.8    0.7661    0.0130
  1273.2           5898             5896             CONDUIT            7.8    0.3703    0.0110
  1274.1           5899             5898             CONDUIT            7.4    0.9518    0.0130
  1274.2           5899             5898             CONDUIT            7.4    0.9518    0.0110
  1289.1           6130             6090             CONDUIT           30.4    0.8562    0.0130
  1289.2           6130             6090             CONDUIT           30.0    9.5770    0.0300
  1317.1           6559             6558             CONDUIT           55.0    1.0728    0.0130
  1317.2           6559             6558             CONDUIT           55.0   -0.7273    0.0110
  1330.1           LA2-C            5929             CONDUIT           65.0   -0.6154    0.0110
  1330.2           LA2-C            5929             CONDUIT           66.0  -11.1829    0.0300
  13390            11376            11374            CONDUIT           72.3    1.3838    0.0130
  13391            11374            11373            CONDUIT           43.6    0.6878    0.0130
  13401            11217            LA3-A            CONDUIT          116.3    7.0541    0.0130
  13402            11218            LA3-I            CONDUIT          131.7    1.3288    0.0130
  13403            4427             LA3-I            CONDUIT           49.5   -0.2019    0.0130
  13531            6248             6247             CONDUIT           96.7    1.3962    0.0130
  135775           5929             5240             CONDUIT           33.8    6.1591    0.0130
  1443.1           5812             5813             CONDUIT            5.7    4.3733    0.0130
  1443.2           5812             5813             CONDUIT            5.7    1.0486    0.0110
  1447.1           5841             5840             CONDUIT            8.8    1.1363    0.0130
  1447.2           5841             5840             CONDUIT            8.8   -7.4057    0.0110
  14758            11218            11217            CONDUIT           53.1    7.0553    0.0130
  1485.1           NODE692          NODE693          CONDUIT           61.2    2.3526    0.0130
  1485.2           NODE692          NODE693          CONDUIT           61.0    3.5481    0.0110
  15474            13926            13927            CONDUIT          186.7    0.6910    0.0130
  15475            13927            6613             CONDUIT           45.1    7.5649    0.0130
  15571            13929            13928            CONDUIT           41.9    0.0024    0.0110
  15572            6618             13929            CONDUIT           23.3    1.4179    0.0130
  15576            13928            13941            CONDUIT          127.5    3.0612    0.0130
  15583            13941            13382            CONDUIT          103.4    2.7102    0.0130
  15589            13382            6572             CONDUIT          144.6    1.1893    0.0130
  1567             6357             6725             CONDUIT          313.6    4.5288    0.0130
  1571             6360             6357             CONDUIT           61.9    2.0530    0.0130
  1576             5240             5918             CONDUIT           55.4    1.0462    0.0130
  1580             5911             5918             CONDUIT          228.2    0.5696    0.0130
  1582             5921             6509             CONDUIT          219.6    0.2459    0.0130
  1584             5941             LA4-A            CONDUIT          122.0    0.3936    0.0130
  1585             5940             5941             CONDUIT          101.5    0.6106    0.0130
  1586             5915             5940             CONDUIT          330.7    0.2540    0.0130
  1587             6504             5915             CONDUIT          377.5    0.2967    0.0130
  1589             LA2-A            6497             CONDUIT          104.2    0.9889    0.0130
  1591             6497             6504             CONDUIT          330.9    0.2750    0.0130
  1596             6513             NODE 6           CONDUIT          102.9    0.1944    0.0130
  1597             NODE 6           6505             CONDUIT           43.6    0.2752    0.0130
  1598             6509             6505             CONDUIT           42.4    1.1098    0.0130
  15982            13164            LA2-A            CONDUIT           53.3    0.9386    0.0130
  1599             6509             6499             CONDUIT          294.8    0.2408    0.0130
  1604             6499             6498             CONDUIT          163.4    0.4407    0.0130
  1606             6498             LA2-A            CONDUIT          170.9    0.5267    0.0130
  1607             6490             6498             CONDUIT          207.9    2.7807    0.0130
  1608             6487             6490             CONDUIT           64.8    2.4689    0.0130
  1612             6608             6490             CONDUIT          358.3    3.4680    0.0130
  1614             6609             6608             CONDUIT           11.3    1.1458    0.0130
  1617             14024            6609             CONDUIT           72.3    0.9683    0.0130
  1623             6566             6608             CONDUIT          360.8    3.7692    0.0130
  1624             11216            6566             CONDUIT          386.6    4.2645    0.0130
  16247            NODE 19          5812             CONDUIT           31.9    0.9730    0.0130
  1637             5813             5814             CONDUIT           22.9    0.6545    0.0130
  1643             6728             5157             CONDUIT           53.3    3.5271    0.0130
  1644             5157             4427             CONDUIT           50.8    8.7332    0.0130
  16440            LA3-U            14732            CONDUIT           85.3    0.0352    0.0130
  16442            15309            LA3-U            CONDUIT           19.2    1.3508    0.0130
  16445            15318            LA3-S            CONDUIT           69.0   -0.2752    0.0110
  16447            15321            LA3-R            CONDUIT           16.3    0.4287    0.0110
  16458            15350            15351            CONDUIT           52.0    2.3096    0.0110
  16459            15351            LA3-W            CONDUIT          146.2    0.8343    0.0110
  16460            14732            LA3-W            CONDUIT          364.6    1.0449    0.0130
  16461            LA3-W            LA3-X            CONDUIT          133.4    1.0198    0.0110
  16462            LA3-X            15305            CONDUIT           87.5    1.1766    0.0110
  16463            15305            6168             CONDUIT           75.5    0.6626    0.0110
  16464            6168             6171             CONDUIT          178.3    1.3237    0.0110
  1658             6569             6356             CONDUIT          114.7    2.5730    0.0130
  1660             6572             12718            CONDUIT          197.9    7.9468    0.0130
  1661             12718            11218            CONDUIT          256.9    7.0546    0.0130
  1685             6551             602              CONDUIT          179.5    1.7105    0.0130
  1708             3008             3021             CONDUIT           25.1    3.9861    0.0130
  1709             3008             3007             CONDUIT          246.7    3.6348    0.0130
  1710             3007             3004             CONDUIT          260.0    4.6786    0.0130
  1713             3004             3006             CONDUIT          439.9    4.0432    0.0130
  1720             3006             LA4-A            CONDUIT          185.5    1.4825    0.0130
  1724             5822             14897            CONDUIT          250.5    3.3230    0.0130
  1725             5818             14897            CONDUIT           97.6    5.7143    0.0130
  1730             5814             5817             CONDUIT          227.1    0.1145    0.0130
  1731             5817             5818             CONDUIT          346.8    0.1701    0.0130
  1734             5824             5822             CONDUIT          333.2    1.1044    0.0130
  1758             NODE 20          6258             CONDUIT          345.8    1.2145    0.0130
  1759             6012             NODE 20          CONDUIT          280.2    2.3879    0.0130
  1760             6258             NODE 21          CONDUIT           44.0    1.1359    0.0130
  1762             6371             6372             CONDUIT           43.0    5.0777    0.0130
  1763             NODE 21          6373             CONDUIT           90.4    0.4426    0.0130
  1764             6373             6372             CONDUIT          139.6    0.0573    0.0130
  1765             6372             NODE 22          CONDUIT          141.7    0.5787    0.0130
  1766             NODE 22          NODE 23          CONDUIT          251.1    0.3385    0.0130
  1767             NODE 23          6330             CONDUIT           65.6    0.6864    0.0130
  1768             6330             6329             CONDUIT          116.8    0.4624    0.0130
  1769             6329             6545             CONDUIT          316.7    0.4453    0.0130
  1831             6154             6156             CONDUIT           37.6    1.8630    0.0130
  1834             6156             NODE 16          CONDUIT           33.6    1.9619    0.0130
  1835             NODE 16          NODE 17          CONDUIT            9.0    3.1126    0.0130
  1836             NODE 17          6158             CONDUIT           38.4    1.4592    0.0130
  1838             6158             6144             CONDUIT          227.5    1.9783    0.0130
  1839             6144             6139             CONDUIT          351.9    2.3623    0.0130
  1843             6139             6134             CONDUIT           49.6    2.4613    0.0130
  1844             NODE 15          LA3-C            CONDUIT           73.8    1.5453    0.0130
  1845             6135             NODE 15          CONDUIT           42.1    4.7565    0.0130
  1846             6134             6135             CONDUIT           80.5    3.9800    0.0130
  1847             6133             6134             CONDUIT           32.9    1.8871    0.0130
  1848             6136             6133             CONDUIT           39.6    1.7692    0.0130
  1849             LA3-D            6141             CONDUIT          109.6    2.1724    0.0130
  1850             6141             6136             CONDUIT           38.7    2.8951    0.0130
  1855             6222             LA3-D            CONDUIT          106.6    1.3982    0.0130
  1861             6152             6151             CONDUIT           34.8    2.1295    0.0130
  1862             6151             6149             CONDUIT          110.6    2.1437    0.0130
  1863             6150             LA3-D            CONDUIT           72.9    1.8384    0.0130
  1864             6149             6150             CONDUIT           25.8    2.8272    0.0130
  1875             6617             6618             CONDUIT           64.1    0.2810    0.0130
  1876             6618             6569             CONDUIT          308.1    0.5713    0.0130
  1877             6356             12718            CONDUIT          305.0    4.9739    0.0130
  1878             6325             6356             CONDUIT          496.3    0.9773    0.0130
  1879             6545             D2               CONDUIT           69.7    0.5163    0.0130
  1880A            NODE 25          D2               CONDUIT           22.4    0.4460    0.0130
  1880B            D2               6325             CONDUIT           22.4    0.4014    0.0130
  1896             6787             6786             CONDUIT          515.0    0.1418    0.0130
  1897             6787             D1               CONDUIT            8.5    0.1172    0.0130
  1898A            6316             D1               CONDUIT          168.7    0.8597    0.0130
  1898B            D1               NODE 25          CONDUIT          168.7    0.8538    0.0130
  1905             6305             6316             CONDUIT          360.6    0.4770    0.0130
  1908             6300             6305             CONDUIT          413.0    0.6658    0.0130
  1911             6785             6300             CONDUIT          510.2    0.4293    0.0130
  1912             6127             6785             CONDUIT          268.2    0.7830    0.0130
  1918             6016             6123             CONDUIT          571.3    0.7072    0.0130
  1921             6123             6261             CONDUIT          229.0   15.4216    0.0130
  1922             6261             6246             CONDUIT          304.8    0.6233    0.0130
  1925             6246             6127             CONDUIT          331.0    0.8157    0.0130
  1931             6239             6785             CONDUIT           45.6   26.0776    0.0130
  2143             6688             6690             CONDUIT          324.8    3.4845    0.0130
  2146             6717             6688             CONDUIT          320.1    5.9398    0.0130
  2149             2799             2829             CONDUIT           41.8    3.7827    0.0130
  2166             6613             LA3-A            CONDUIT          324.8   12.2946    0.0130
  2168             6612             13926            CONDUIT           25.6    1.6827    0.0130
  2169             6700             6645             CONDUIT          179.5    0.3900    0.0130
  2170             6644             LA3-A            CONDUIT          141.1    0.4677    0.0130
  2171             6645             6644             CONDUIT           87.1    0.4823    0.0130
  2203             6718             6717             CONDUIT          314.1    2.7482    0.0130
  2295             NODE 10          6708             CONDUIT           83.3    0.0960    0.0130
  2298             6702             6697             CONDUIT           70.5    0.0568    0.0130
  2299             6714             6702             CONDUIT          152.1    1.0191    0.0130
  2300             LA3-A            6714             CONDUIT           11.8  -37.5442    0.0130
  2301             6697             LA4-A            CONDUIT           33.9    0.3835    0.0130
  2302             6707             6697             CONDUIT           98.1    0.1325    0.0130
  2306             6700             LA3-A            CONDUIT          152.9    2.7677    0.0130
  2312             13643            6701             CONDUIT          404.6    0.6352    0.0130
  2315             6691             13643            CONDUIT          334.2    1.0831    0.0130
  2318             2829             6691             CONDUIT           86.1    1.3825    0.0130
  2319             6690             2829             CONDUIT           43.1    2.2749    0.0130
  2321             NODE 12          LA3-A            CONDUIT          137.7    5.4537    0.0130
  2323             NODE 11          NODE 12          CONDUIT           99.3    5.5481    0.0130
  2324             2812             NODE 11          CONDUIT          245.7    9.4031    0.0130
  2328             2807             2811             CONDUIT           36.2    2.0974    0.0130
  2333             2804             2830             CONDUIT          138.5    6.3804    0.0130
  4425.5           LA3-I            LA3-A            CONDUIT            5.0    8.6320    0.0130
  5184             14898            5841             CONDUIT           42.8    0.7015    0.0130
  5595             5840             5824             CONDUIT          517.6    0.5390    0.0130
  5603             5846             5845             CONDUIT          154.3    1.4708    0.0130
  5610             5935             5846             CONDUIT          169.0    3.0259    0.0130
  6253.1           4427             LA3-A            CONDUIT           40.5    9.9866    0.0130
  6253.2           4427             LA3-A            CONDUIT           40.5    7.1597    0.0300
  6839             11120            LA6-A            CONDUIT          123.5    0.5343    0.0130
  6840             10424            11120            CONDUIT          111.3    0.3953    0.0130
  6841             11144            10424            CONDUIT           85.4    0.5852    0.0130
  6842             11143            11144            CONDUIT            9.1    0.3315    0.0130
  6843             10429            11143            CONDUIT           45.5    0.2639    0.0130
  6844             10430            10429            CONDUIT           10.1    1.5922    0.0130
  6845             NODE701          10430            CONDUIT           43.1    0.8112    0.0130
  6847             LA6-A            10981            CONDUIT          128.7    0.5205    0.0130
  6850             13448            LA5-A            CONDUIT          120.1    0.7496    0.0130
  6851             10981            13448            CONDUIT           91.9    0.0435    0.0130
  9177             LA3-C            6261             CONDUIT          154.2    1.2974    0.0130
  9253             6516             6513             CONDUIT          142.9    2.2398    0.0130
  9254             6514             6513             CONDUIT           15.5    1.7409    0.0130
  9256             6511             6513             CONDUIT           26.6    1.0160    0.0130
  9258             13488            6516             CONDUIT           39.8    0.9558    0.0130
  9259             NODE 7           6516             CONDUIT           50.8    0.9445    0.0130
  9260             13487            6514             CONDUIT           29.2    0.5146    0.0130
  9261             LA2-C            6511             CONDUIT           20.6    0.7292    0.0130
  9262             6517             6525             CONDUIT          402.2    1.0145    0.0130
  9263             6525             LA2-A            CONDUIT           94.1    0.7756    0.0130
  9266             NODE 3           6517             CONDUIT          230.5    0.7723    0.0130
  9267             5902             NODE 3           CONDUIT          231.6    1.4766    0.0130
  9269             NODE 2           5902             CONDUIT          170.7    0.4276    0.0130
  9270             5893             NODE 2           CONDUIT          171.4    0.2801    0.0130
  9271             5894             5893             CONDUIT           98.9    0.2427    0.0130
  9272             5895             5894             CONDUIT            9.4    1.0614    0.0130
  9275             5896             5895             CONDUIT          168.1    0.8983    0.0130
  9292             6309             6312             CONDUIT           28.8    0.6952    0.0130
  9385             5993             NODE 20          CONDUIT          543.3    7.9950    0.0130
  9389             6786             6306             CONDUIT          430.3    0.4880    0.0130
  9390             6309             6306             CONDUIT           35.7    0.9813    0.0130
  9391             6306             6312             CONDUIT           28.9    0.7608    0.0130
  9393             6312             NODE 14          CONDUIT          217.6    0.7582    0.0130
  9394             NODE 14          6615             CONDUIT          151.4    0.7465    0.0130
  9395             6615             6614             CONDUIT           22.3    1.9296    0.0130
  9396             6614             12717            CONDUIT          109.2    1.8963    0.0130
  9397             12717            NODE 13          CONDUIT           59.0   11.9558    0.0130
  9398             NODE 13          NODE734          CONDUIT           25.9    1.2337    0.0130
  9494             6272             6270             CONDUIT           64.5    1.6115    0.0130
  9497             6270             6262             CONDUIT          104.3    4.5387    0.0130
  9498             6262             SP8-C            CONDUIT          104.3    1.9846    0.0130
  9499             SP8-C            SP8-B            CONDUIT           16.2    0.1232    0.0130
  9503             SP8-B            6238             CONDUIT           45.9    6.7906    0.0130
  9504             6238             6239             CONDUIT           38.1    2.0983    0.0130
  9705             5994             5993             CONDUIT          380.0    0.4105    0.0110
  9812             2811             2809             CONDUIT           20.9    1.8623    0.0130
  9813             2809             2812             CONDUIT          263.9    2.2741    0.0130
  DITCH2           6250             LA3-B            CONDUIT          290.0    0.1414    0.3000
  DITCH3           11373            6254             CONDUIT          730.0    2.7133    0.3000
  DITCH4           NODE734          LA3-A            CONDUIT          512.6    7.1839    0.3000
  DITCH 1          6247             6246             CONDUIT          804.7    2.3122    0.3000
  LINK804          LA7-A            NODE701          CONDUIT          158.3    4.0456    0.0110
  LINK806          LA5-A            LA4-F            CONDUIT          240.0    1.6669    0.0130
  LINK812          LA2-B            NODE710          CONDUIT           33.0    1.4547    0.0130
  LINK813          NODE710          NODE711          CONDUIT           33.0    1.0001    0.0130
  LINK814          NODE711          NODE712          CONDUIT           33.0    4.7022    0.0130
  LINK815          NODE712          13487            CONDUIT           33.0    1.2728    0.0130
  LINK818          LA3-F            6012             CONDUIT           37.3   32.7539    0.0130
  LINK819          LA3-R            NODE716          CONDUIT           29.8    1.5416    0.0130
  LINK820          LA3-S            LA3-T            CONDUIT          103.0   -0.5825    0.0110
  LINK821          LA3-T            NODE718          CONDUIT           54.3   -0.2579    0.0130
  LINK822          LA3-V            15351            CONDUIT           75.8   -0.0660    0.0110
  LINK836          6701             6707             CONDUIT          176.0    2.5497    0.0110
  LINK837          2804             2800             CONDUIT          324.0    5.8588    0.0110
  LINK838          2807             2804             CONDUIT          268.0    3.3863    0.0110
  LINK839          5911             5921             CONDUIT          287.0    1.1436    0.0110
  LINK840          5935             5845             CONDUIT          325.0    3.2941    0.0110
  LINK841          6012             6254             CONDUIT          154.0    5.4235    0.0300
  LINK842          6016             6156             CONDUIT          185.0    1.9463    0.0110
  LINK845          6222             6150             CONDUIT          327.0    0.8012    0.0110
  LINK846          6258             LA3-B            CONDUIT           55.0    5.8829    0.0300
  LINK847          6357             6726             CONDUIT          621.0    4.0369    0.0110
  LINK848          6371             6327             CONDUIT          555.0    0.8090    0.0110
  LINK849          6551             6547             CONDUIT          417.0    2.2133    0.0110
  LINK850          6612             6613             CONDUIT          298.0    1.0437    0.0110
  LINK851          6688             2799             CONDUIT          371.0    3.4022    0.0110
  LINK852          NODE 10          6707             CONDUIT          167.0    0.5090    0.0110
  LINK853          2829             2800             CONDUIT           56.6    1.4136    0.0110
  LINK854          6487             6499             CONDUIT          367.0    2.6361    0.0110
  LINK855          6690             6691             CONDUIT          109.0    1.1111    0.0110
  LINK856          6728             NODE 10          CONDUIT          368.0    3.5874    0.0110
  LINK857          6090             OFFSITE2         CONDUIT          438.0    1.1530    0.0110
  LINK858          5993             OFFSITE1         CONDUIT          306.0    0.4412    0.0110
  825.1            LA3-J            6152             WEIR        
  826.1            LA4-A            NODE726          WEIR        
  828.1            LA3-E            NODE727          WEIR        
  829.1            LA4-F            NODE728          WEIR        
  830.1            LA4-C            NODE729          WEIR        
  831.1            LA4-B            NODE730          WEIR        
  832.1            LA4-E            NODE731          WEIR        
  833.1            LA4-D            NODE732          WEIR        
  834.1            LA4-G            NODE733          WEIR        
  864              LA3-B            NODE820          WEIR        
  
  
  *********************
  Cross Section Summary
  *********************
                                        Full     Full     Hyd.     Max.   No. of     Full
  Conduit          Shape               Depth     Area     Rad.    Width  Barrels     Flow
  ---------------------------------------------------------------------------------------
  10574            CIRCULAR             2.50     4.91     0.62     2.50        1   130.35
  10575            CIRCULAR             3.00     7.07     0.75     3.00        1   153.36
  10701            CIRCULAR             1.50     1.77     0.38     1.50        1    12.08
  10702            CIRCULAR             1.50     1.77     0.38     1.50        1     8.91
  10703            CIRCULAR             1.50     1.77     0.38     1.50        1    11.13
  10704            CIRCULAR             1.50     1.77     0.38     1.50        1    19.56
  10705            CIRCULAR             1.50     1.77     0.38     1.50        1    11.93
  10706            CIRCULAR             1.50     1.77     0.38     1.50        1    16.83
  10707            CIRCULAR             1.50     1.77     0.38     1.50        1    16.65
  10708            CIRCULAR             1.50     1.77     0.38     1.50        1    20.03
  10709            CIRCULAR             1.50     1.77     0.38     1.50        1     5.08
  10710            CIRCULAR             1.50     1.77     0.38     1.50        1    14.19
  10711            CIRCULAR             4.00    12.57     1.00     4.00        1   219.96
  10712            CIRCULAR             4.00    12.57     1.00     4.00        1   194.53
  10713            CIRCULAR             1.50     1.77     0.38     1.50        1    26.11
  11003            CIRCULAR             1.50     1.77     0.38     1.50        1    51.77
  1157.1           CIRCULAR             1.50     1.77     0.38     1.50        1    15.55
  1157.2           TRAPEZOIDAL          1.00    54.00     0.52   104.00        1   634.22
  1160.1           CIRCULAR             1.50     1.77     0.38     1.50        1     7.97
  1160.2           TRAPEZOIDAL          1.00    54.00     0.52   104.00        1   549.33
  11609            CIRCULAR             2.25     3.98     0.56     2.25        1    23.34
  11612            CIRCULAR             1.50     1.77     0.38     1.50        1     7.82
  11613            CIRCULAR             0.50     0.20     0.12     0.50        1     0.77
  11614            CIRCULAR             1.25     1.23     0.31     1.25        1     9.19
  1179.1           CIRCULAR             1.50     1.77     0.38     1.50        1    14.78
  1179.2           TRAPEZOIDAL          1.00    54.00     0.52   104.00        1   686.30
  1180.1           CIRCULAR             1.75     2.41     0.44     1.75        1    36.30
  1180.2           TRAPEZOIDAL          1.00    54.00     0.52   104.00        1  1021.05
  1181.1           CIRCULAR             1.00     0.79     0.25     1.00        1     6.18
  1181.2           TRAPEZOIDAL          1.00    54.00     0.52   104.00        1   998.92
  1184.1           CIRCULAR             1.50     1.77     0.38     1.50        1    19.54
  1184.2           TRAPEZOIDAL          1.00    54.00     0.52   104.00        1   910.19
  1187.1           CIRCULAR             1.50     1.77     0.38     1.50        1    14.10
  1187.2           TRAPEZOIDAL          1.00    54.00     0.52   104.00        1   261.74
  11938            CIRCULAR             1.25     1.23     0.31     1.25        1    20.56
  11939            CIRCULAR             2.00     3.14     0.50     2.00        1    22.75
  11940            CIRCULAR             1.25     1.23     0.31     1.25        1    15.83
  11942            CIRCULAR             1.25     1.23     0.31     1.25        1     9.66
  11943            CIRCULAR             1.25     1.23     0.31     1.25        1    22.01
  11946            CIRCULAR             1.00     0.79     0.25     1.00        1    12.58
  1220.1           CIRCULAR             1.50     1.77     0.38     1.50        1     9.65
  1220.2           TRAPEZOIDAL          1.00    54.00     0.52   104.00        1   444.26
  12266            CIRCULAR             2.00     3.14     0.50     2.00        1    11.81
  12267            CIRCULAR             2.00     3.14     0.50     2.00        1    11.90
  12268            CIRCULAR             2.00     3.14     0.50     2.00        1    12.45
  12271            CIRCULAR             1.50     1.77     0.38     1.50        1    29.31
  1238.1           CIRCULAR             1.50     1.77     0.38     1.50        1     9.43
  1238.2           TRAPEZOIDAL          1.00    54.00     0.52   104.00        1   559.28
  12448            CIRCULAR             1.50     1.77     0.38     1.50        1    12.79
  12449            CIRCULAR             1.50     1.77     0.38     1.50        1    14.86
  1249.1           CIRCULAR             1.50     1.77     0.38     1.50        1    21.85
  1249.2           TRAPEZOIDAL          1.00    54.00     0.52   104.00        1   430.06
  1250.1           CIRCULAR             1.50     1.77     0.38     1.50        1    23.59
  1250.2           TRAPEZOIDAL          1.00    54.00     0.52   104.00        1   423.39
  1253.1           CIRCULAR             2.00     3.14     0.50     2.00        1    32.22
  1253.2           TRAPEZOIDAL          1.00    54.00     0.52   104.00        1   519.76
  1273.1           CIRCULAR             1.75     2.41     0.44     1.75        1    13.87
  1273.2           TRAPEZOIDAL          1.00    54.00     0.52   104.00        1   286.73
  1274.1           CIRCULAR             1.50     1.77     0.38     1.50        1    10.25
  1274.2           TRAPEZOIDAL          1.00    54.00     0.52   104.00        1   459.70
  1289.1           CIRCULAR             1.50     1.77     0.38     1.50        1     9.72
  1289.2           TRAPEZOIDAL          1.00    70.00     0.58   120.00        1   749.04
  1317.1           CIRCULAR             1.50     1.77     0.38     1.50        1    10.88
  1317.2           TRAPEZOIDAL          1.00    54.00     0.52   104.00        1   401.85
  1330.1           CIRCULAR             2.00     3.14     0.50     2.00        1    20.97
  1330.2           TRAPEZOIDAL          2.00   110.00     1.29    85.00        1  2161.54
  13390            CIRCULAR             1.50     1.77     0.38     1.50        1    12.36
  13391            CIRCULAR             1.50     1.77     0.38     1.50        1     8.71
  13401            CIRCULAR             5.50    23.76     1.38     5.50        1   891.89
  13402            CIRCULAR             3.50     9.62     0.88     3.50        1   115.98
  13403            CIRCULAR             1.50     1.77     0.38     1.50        1     4.72
  13531            CIRCULAR             1.50     1.77     0.38     1.50        1    12.41
  135775           CIRCULAR             1.00     0.79     0.25     1.00        1     8.84
  1443.1           CIRCULAR             1.00     0.79     0.25     1.00        1     7.45
  1443.2           TRAPEZOIDAL          1.00    54.00     0.52   104.00        1   482.52
  1447.1           CIRCULAR             1.00     0.79     0.25     1.00        1     3.80
  1447.2           TRAPEZOIDAL          1.00    54.00     0.52   104.00        1  1282.30
  14758            CIRCULAR             5.50    23.76     1.38     5.50        1   891.97
  1485.1           CIRCULAR             1.25     1.23     0.31     1.25        1     9.91
  1485.2           TRAPEZOIDAL          1.00    54.00     0.52   104.00        1   887.57
  15474            CIRCULAR             1.75     2.41     0.44     1.75        1    13.17
  15475            CIRCULAR             1.75     2.41     0.44     1.75        1    43.58
  15571            CIRCULAR             4.00    12.57     1.00     4.00        1     8.29
  15572            CIRCULAR             1.00     0.79     0.25     1.00        1     4.24
  15576            CIRCULAR             1.00     0.79     0.25     1.00        1     6.23
  15583            CIRCULAR             1.00     0.79     0.25     1.00        1     5.87
  15589            CIRCULAR             1.00     0.79     0.25     1.00        1     3.89
  1567             CIRCULAR             1.75     2.41     0.44     1.75        1    33.72
  1571             CIRCULAR             1.75     2.41     0.44     1.75        1    22.70
  1576             CIRCULAR             1.00     0.79     0.25     1.00        1     3.64
  1580             CIRCULAR             1.50     1.77     0.38     1.50        1     7.93
  1582             CIRCULAR             1.75     2.41     0.44     1.75        1     7.86
  1584             CIRCULAR             1.50     1.77     0.38     1.50        1     6.59
  1585             CIRCULAR             1.50     1.77     0.38     1.50        1     8.21
  1586             CIRCULAR             1.50     1.77     0.38     1.50        1     5.29
  1587             CIRCULAR             1.50     1.77     0.38     1.50        1     5.72
  1589             CIRCULAR             1.50     1.77     0.38     1.50        1    10.45
  1591             CIRCULAR             1.50     1.77     0.38     1.50        1     5.51
  1596             CIRCULAR             3.00     7.07     0.75     3.00        1    29.41
  1597             CIRCULAR             3.00     7.07     0.75     3.00        1    34.99
  1598             CIRCULAR             3.00     7.07     0.75     3.00        1    70.26
  15982            CIRCULAR             3.00     7.07     0.75     3.00        1    64.62
  1599             CIRCULAR             4.00    12.57     1.00     4.00        1    70.49
  1604             CIRCULAR             4.00    12.57     1.00     4.00        1    95.35
  1606             CIRCULAR             4.50    15.90     1.12     4.50        1   142.72
  1607             CIRCULAR             2.50     4.91     0.62     2.50        1    68.40
  1608             CIRCULAR             2.25     3.98     0.56     2.25        1    48.66
  1612             CIRCULAR             2.00     3.14     0.50     2.00        1    42.13
  1614             CIRCULAR             1.50     1.77     0.38     1.50        1    11.24
[...]
  1582                    1.00   0.04  0.00  0.00  0.00  0.00  0.00  0.96  0.00  0.00
  1584                    1.00   0.04  0.51  0.00  0.07  0.38  0.00  0.00  0.05  0.00
  1585                    1.00   0.55  0.00  0.00  0.45  0.00  0.00  0.00  0.07  0.00
  1586                    1.00   0.55  0.00  0.00  0.45  0.00  0.00  0.00  0.00  0.00
  1587                    1.00   0.55  0.00  0.00  0.45  0.00  0.00  0.00  0.44  0.00
  1589                    1.00   0.54  0.00  0.00  0.46  0.00  0.00  0.00  0.16  0.00
  1591                    1.00   0.54  0.00  0.00  0.46  0.00  0.00  0.00  0.00  0.00
  1596                    1.00   0.05  0.00  0.00  0.95  0.00  0.00  0.00  0.19  0.00
  1597                    1.00   0.05  0.00  0.00  0.81  0.01  0.00  0.13  0.00  0.00
  1598                    1.00   0.04  0.14  0.00  0.00  0.00  0.82  0.00  0.00  0.00
  15982                   1.00   0.04  0.00  0.00  0.00  0.00  0.00  0.96  0.00  0.00
  1599                    1.00   0.04  0.00  0.00  0.00  0.00  0.00  0.96  0.00  0.00
  1604                    1.00   0.04  0.00  0.00  0.56  0.00  0.00  0.41  0.55  0.00
  1606                    1.00   0.04  0.01  0.00  0.96  0.00  0.00  0.00  0.38  0.00
  1607                    1.00   0.04  0.00  0.00  0.00  0.00  0.00  0.96  0.00  0.00
  1608                    1.00   0.04  0.00  0.00  0.00  0.00  0.00  0.96  0.00  0.00
  1612                    1.00   0.04  0.00  0.00  0.00  0.00  0.00  0.96  0.00  0.00
  1614                    1.17   0.04  0.00  0.00  0.00  0.00  0.00  0.96  0.00  0.00
  1617                    1.00   0.04  0.73  0.00  0.00  0.23  0.00  0.00  0.00  0.00
  1623                    1.00   0.04  0.00  0.00  0.00  0.00  0.00  0.96  0.00  0.00
  1624                    1.00   0.04  0.00  0.00  0.15  0.82  0.00  0.00  0.95  0.00
  16247                   1.00   0.04  0.96  0.00  0.00  0.00  0.00  0.00  0.00  0.00
  1637                    1.00   0.04  0.01  0.00  0.95  0.00  0.00  0.00  0.95  0.00
  1643                    1.00   0.04  0.00  0.00  0.01  0.95  0.00  0.00  0.00  0.00
  1644                    1.00   0.04  0.00  0.00  0.00  0.00  0.00  0.96  0.00  0.00
  16440                   1.00   0.04  0.00  0.00  0.96  0.00  0.00  0.00  0.13  0.00
  16442                   1.00   0.04  0.00  0.00  0.00  0.00  0.00  0.96  0.00  0.00
  16445                   1.00   0.04  0.19  0.00  0.77  0.00  0.00  0.00  0.00  0.00
  16447                   1.00   1.00  0.00  0.00  0.00  0.00  0.00  0.00  0.00  0.00
  16458                   1.00   0.04  0.00  0.00  0.51  0.45  0.00  0.00  0.95  0.00
  16459                   1.00   0.04  0.00  0.00  0.96  0.00  0.00  0.00  0.94  0.00
  16460                   1.00   0.04  0.06  0.00  0.89  0.00  0.00  0.00  0.89  0.00
  16461                   1.00   0.04  0.00  0.00  0.12  0.84  0.00  0.00  0.00  0.00
  16462                   1.00   0.05  0.00  0.00  0.95  0.00  0.00  0.00  0.95  0.00
  16463                   1.00   0.04  0.08  0.00  0.10  0.78  0.00  0.00  0.07  0.00
  16464                   1.00   0.04  0.00  0.00  0.00  0.00  0.00  0.96  0.00  0.00
  1658                    1.00   0.04  0.00  0.00  0.00  0.00  0.00  0.96  0.00  0.00
  1660                    1.00   0.05  0.95  0.00  0.00  0.00  0.00  0.00  0.00  0.00
  1661                    1.00   0.05  0.00  0.00  0.00  0.00  0.00  0.95  0.00  0.00
  1685                    1.00   0.04  0.96  0.00  0.00  0.00  0.00  0.00  0.00  0.00
  1708                    1.00   0.04  0.21  0.00  0.00  0.00  0.75  0.00  0.00  0.00
  1709                    1.00   0.04  0.00  0.00  0.05  0.91  0.00  0.00  0.14  0.00
  1710                    1.00   0.05  0.00  0.00  0.00  0.00  0.00  0.95  0.00  0.00
  1713                    1.00   0.04  0.00  0.00  0.00  0.00  0.00  0.96  0.00  0.00
  1720                    1.00   0.04  0.00  0.00  0.00  0.00  0.00  0.96  0.00  0.00
  1724                    1.00   0.04  0.00  0.00  0.00  0.00  0.00  0.96  0.00  0.00
  1725                    1.00   0.04  0.00  0.00  0.00  0.00  0.00  0.96  0.00  0.00
  1730                    1.00   0.04  0.00  0.00  0.96  0.00  0.00  0.00  0.94  0.00
  1731                    1.00   0.05  0.00  0.00  0.00  0.00  0.00  0.95  0.00  0.00
  1734                    1.00   0.04  0.00  0.00  0.13  0.84  0.00  0.00  0.00  0.00
  1758                    1.00   0.04  0.01  0.00  0.20  0.76  0.00  0.00  0.95  0.00
  1759                    1.00   0.24  0.00  0.00  0.00  0.00  0.00  0.76  0.00  0.00
  1760                    1.00   0.04  0.00  0.00  0.00  0.00  0.00  0.96  0.00  0.00
  1762                    1.00   0.04  0.00  0.00  0.00  0.00  0.00  0.96  0.00  0.00
  1763                    1.00   0.04  0.00  0.00  0.96  0.00  0.00  0.00  0.96  0.00
  1764                    1.00   0.04  0.00  0.00  0.00  0.00  0.00  0.96  0.00  0.00
  1765                    1.00   0.04  0.00  0.00  0.96  0.00  0.00  0.00  0.95  0.00
  1766                    1.00   0.04  0.00  0.00  0.96  0.00  0.00  0.00  0.00  0.00
  1767                    1.00   0.04  0.00  0.00  0.96  0.00  0.00  0.00  0.20  0.00
  1768                    1.00   0.05  0.00  0.00  0.95  0.00  0.00  0.00  0.21  0.00
  1769                    1.00   0.04  0.16  0.00  0.80  0.00  0.00  0.00  0.04  0.00
  1831                    1.00   0.04  0.00  0.00  0.92  0.03  0.00  0.00  0.92  0.00
  1834                    1.00   0.04  0.00  0.00  0.15  0.80  0.00  0.00  0.04  0.00
  1835                    1.94   0.06  0.00  0.00  0.11  0.83  0.00  0.00  0.69  0.00
  1836                    1.00   0.04  0.02  0.00  0.82  0.12  0.00  0.00  0.94  0.00
  1838                    1.00   0.04  0.00  0.00  0.00  0.00  0.00  0.96  0.00  0.00
  1839                    1.00   0.04  0.00  0.00  0.20  0.76  0.00  0.00  0.95  0.00
  1843                    1.00   0.04  0.00  0.00  0.00  0.00  0.00  0.96  0.00  0.00
  1844                    1.00   0.05  0.00  0.00  0.49  0.23  0.00  0.23  0.64  0.00
  1845                    1.00   0.05  0.00  0.00  0.00  0.00  0.00  0.95  0.00  0.00
  1846                    1.00   0.05  0.00  0.00  0.00  0.00  0.00  0.95  0.00  0.00
  1847                    1.00   0.04  0.00  0.00  0.00  0.00  0.00  0.96  0.00  0.00
  1848                    1.00   0.04  0.01  0.00  0.12  0.84  0.00  0.00  0.19  0.00
  1849                    1.00   0.04  0.00  0.00  0.07  0.89  0.00  0.00  0.01  0.00
  1850                    1.00   0.04  0.00  0.00  0.03  0.93  0.00  0.00  0.17  0.00
  1855                    1.00   0.04  0.00  0.00  0.00  0.00  0.00  0.96  0.00  0.00
  1861                    1.00   0.04  0.00  0.00  0.29  0.68  0.00  0.00  0.02  0.00
  1862                    1.00   0.04  0.02  0.00  0.90  0.04  0.00  0.00  0.94  0.00
  1863                    1.00   0.04  0.00  0.00  0.00  0.00  0.00  0.96  0.00  0.00
  1864                    1.00   0.04  0.00  0.00  0.16  0.81  0.00  0.00  0.95  0.00
  1875                    1.00   0.04  0.00  0.00  0.71  0.00  0.00  0.25  0.57  0.00
  1876                    1.00   0.04  0.25  0.00  0.60  0.11  0.00  0.00  0.00  0.00
  1877                    1.00   0.05  0.01  0.00  0.01  0.94  0.00  0.00  0.17  0.00
  1878                    1.00   0.04  0.00  0.00  0.15  0.81  0.00  0.00  0.00  0.00
  1879                    1.00   0.04  0.01  0.00  0.96  0.00  0.00  0.00  0.96  0.00
  1880A                   1.07   0.04  0.00  0.00  0.94  0.00  0.00  0.02  0.20  0.00
  1880B                   1.04   0.04  0.02  0.00  0.94  0.00  0.00  0.00  0.14  0.00
  1896                    1.00   1.00  0.00  0.00  0.00  0.00  0.00  0.00  0.00  0.00
  1897                    1.05   1.00  0.00  0.00  0.00  0.00  0.00  0.00  0.00  0.00
  1898A                   1.00   0.04  0.00  0.00  0.20  0.75  0.00  0.00  0.02  0.00
  1898B                   1.00   0.04  0.01  0.00  0.95  0.01  0.00  0.00  0.96  0.00
  1905                    1.00   0.04  0.00  0.00  0.23  0.74  0.00  0.00  0.01  0.00
  1908                    1.00   0.04  0.01  0.00  0.23  0.73  0.00  0.00  0.95  0.00
  1911                    1.00   0.04  0.01  0.00  0.23  0.72  0.00  0.00  0.03  0.00
  1912                    1.00   0.04  0.00  0.00  0.00  0.00  0.00  0.96  0.00  0.00
  1918                    1.00   0.04  0.00  0.00  0.96  0.00  0.00  0.00  0.95  0.00
  1921                    1.00   0.23  0.00  0.00  0.72  0.05  0.00  0.00  0.77  0.00
  1922                    1.00   0.03  0.19  0.00  0.28  0.50  0.00  0.00  0.77  0.00
  1925                    1.00   0.03  0.00  0.00  0.23  0.74  0.00  0.00  0.22  0.00
  1931                    1.00   0.05  0.00  0.00  0.00  0.00  0.00  0.95  0.00  0.00
  2143                    1.00   0.04  0.00  0.00  0.10  0.86  0.00  0.00  0.94  0.00
  2146                    1.00   0.09  0.00  0.00  0.00  0.00  0.00  0.91  0.00  0.00
  2149                    1.00   0.04  0.00  0.00  0.13  0.83  0.00  0.00  0.95  0.00
  2166                    1.00   0.04  0.00  0.00  0.00  0.00  0.00  0.96  0.00  0.00
  2168                    1.00   0.04  0.00  0.00  0.21  0.76  0.00  0.00  0.95  0.00
  2169                    1.00   0.04  0.96  0.00  0.00  0.00  0.00  0.00  0.00  0.00
  2170                    1.00   0.04  0.00  0.00  0.00  0.00  0.00  0.96  0.00  0.00
  2171                    1.00   0.04  0.00  0.00  0.96  0.00  0.00  0.00  0.96  0.00
  2203                    1.00   0.04  0.00  0.00  0.22  0.75  0.00  0.00  0.95  0.00
  2295                    1.00   0.04  0.22  0.00  0.74  0.00  0.00  0.00  0.00  0.00
  2298                    1.00   0.04  0.19  0.00  0.77  0.00  0.00  0.00  0.00  0.00
  2299                    1.00   0.23  0.77  0.00  0.00  0.00  0.00  0.00  0.00  0.00
  2300                    5.10   0.04  0.96  0.00  0.00  0.00  0.00  0.00  0.00  0.00
  2301                    1.00   0.04  0.00  0.00  0.00  0.00  0.00  0.96  0.00  0.00
  2302                    1.00   0.04  0.00  0.00  0.00  0.00  0.00  0.96  0.00  0.00
  2306                    1.00   0.04  0.00  0.00  0.70  0.00  0.00  0.26  0.71  0.00
  2312                    1.00   0.04  0.00  0.00  0.96  0.00  0.00  0.00  0.22  0.00
  2315                    1.00   0.04  0.00  0.00  0.92  0.04  0.00  0.00  0.25  0.00
  2318                    1.00   0.04  0.00  0.00  0.83  0.13  0.00  0.00  0.91  0.00
  2319                    1.00   0.04  0.00  0.00  0.21  0.75  0.00  0.00  0.96  0.00
  2321                    1.00   0.05  0.00  0.00  0.13  0.05  0.00  0.77  0.18  0.00
  2323                    1.00   0.04  0.00  0.00  0.01  0.95  0.00  0.00  0.17  0.00
  2324                    1.00   0.04  0.00  0.00  0.01  0.95  0.00  0.00  0.95  0.00
  2328                    1.00   0.04  0.00  0.00  0.17  0.79  0.00  0.00  0.95  0.00
  2333                    1.00   0.04  0.00  0.00  0.02  0.94  0.00  0.00  0.95  0.00
  4425.5                  8.27   0.04  0.17  0.00  0.73  0.07  0.00  0.00  0.00  0.00
  5184                    1.00   0.03  0.00  0.00  0.96  0.00  0.00  0.00  0.21  0.00
  5595                    1.00   0.03  0.00  0.00  0.22  0.75  0.00  0.00  0.01  0.00
  5603                    1.00   0.04  0.01  0.00  0.18  0.77  0.00  0.00  0.94  0.00
  5610                    1.00   0.04  0.00  0.00  0.08  0.88  0.00  0.00  0.94  0.00
  6253.1                  1.00   0.26  0.74  0.00  0.00  0.00  0.00  0.00  0.00  0.00
  6253.2                  1.00   1.00  0.00  0.00  0.00  0.00  0.00  0.00  0.00  0.00
  6839                    1.00   0.04  0.01  0.00  0.95  0.00  0.00  0.00  0.38  0.00
  6840                    1.00   0.04  0.00  0.00  0.96  0.00  0.00  0.00  0.40  0.00
  6841                    1.00   0.04  0.01  0.00  0.96  0.00  0.00  0.00  0.96  0.00
  6842                    1.15   0.04  0.00  0.00  0.96  0.00  0.00  0.00  0.00  0.00
  6843                    1.00   0.04  0.00  0.00  0.96  0.00  0.00  0.00  0.96  0.00
  6844                    1.13   0.04  0.00  0.00  0.96  0.00  0.00  0.00  0.95  0.00
  6845                    1.00   0.04  0.96  0.00  0.00  0.00  0.00  0.00  0.00  0.00
  6847                    1.00   0.04  0.34  0.00  0.62  0.00  0.00  0.00  0.15  0.00
  6850                    1.00   0.04  0.00  0.00  0.96  0.00  0.00  0.00  0.29  0.00
  6851                    1.00   0.04  0.00  0.00  0.62  0.00  0.00  0.34  0.00  0.00
  9177                    1.00   0.26  0.00  0.00  0.00  0.00  0.00  0.74  0.00  0.00
  9253                    1.00   0.08  0.00  0.00  0.00  0.00  0.00  0.92  0.00  0.00
  9254                    1.04   0.04  0.00  0.00  0.00  0.00  0.00  0.96  0.00  0.00
  9256                    1.00   0.04  0.00  0.00  0.00  0.00  0.00  0.96  0.00  0.00
  9258                    1.00   0.05  0.00  0.00  0.95  0.00  0.00  0.00  0.19  0.00
  9259                    1.00   0.08  0.92  0.00  0.00  0.00  0.00  0.00  0.00  0.00
  9260                    1.00   0.04  0.03  0.00  0.93  0.00  0.00  0.00  0.16  0.00
  9261                    1.00   0.04  0.41  0.00  0.37  0.18  0.00  0.00  0.01  0.00
  9262                    1.00   0.06  0.00  0.00  0.00  0.00  0.00  0.94  0.00  0.00
  9263                    1.00   0.04  0.02  0.00  0.94  0.00  0.00  0.00  0.30  0.00
  9266                    1.00   0.04  0.01  0.00  0.21  0.74  0.00  0.00  0.95  0.00
  9267                    1.00   0.04  0.00  0.00  0.18  0.78  0.00  0.00  0.95  0.00
  9269                    1.00   0.04  0.01  0.00  0.95  0.00  0.00  0.00  0.00  0.00
  9270                    1.00   0.04  0.00  0.00  0.96  0.00  0.00  0.00  0.15  0.00
  9271                    1.00   0.04  0.01  0.00  0.96  0.00  0.00  0.00  0.95  0.00
  9272                    1.76   0.04  0.00  0.00  0.00  0.00  0.00  0.96  0.00  0.00
  9275                    1.00   0.04  0.01  0.00  0.84  0.11  0.00  0.00  0.95  0.00
  9292                    1.00   0.04  0.00  0.00  0.00  0.00  0.00  0.96  0.00  0.00
  9385                    1.00   0.03  0.00  0.00  0.03  0.93  0.00  0.00  0.81  0.00
  9389                    1.00   1.00  0.00  0.00  0.00  0.00  0.00  0.00  0.00  0.00
  9390                    1.00   1.00  0.00  0.00  0.00  0.00  0.00  0.00  0.00  0.00
  9391                    1.00   0.05  0.95  0.00  0.00  0.00  0.00  0.00  0.00  0.00
  9393                    1.00   0.05  0.00  0.00  0.95  0.00  0.00  0.00  0.94  0.00
  9394                    1.00   0.05  0.00  0.00  0.20  0.75  0.00  0.00  0.01  0.00
  9395                    1.00   0.04  0.01  0.00  0.19  0.76  0.00  0.00  0.23  0.00
  9396                    1.00   0.04  0.00  0.00  0.08  0.88  0.00  0.00  0.02  0.00
  9397                    1.00   0.07  0.00  0.00  0.00  0.00  0.00  0.93  0.00  0.00
  9398                    1.00   0.06  0.00  0.00  0.08  0.86  0.00  0.00  0.00  0.00
  9494                    1.00   0.04  0.00  0.00  0.16  0.80  0.00  0.00  0.01  0.00
  9497                    1.00   0.04  0.00  0.00  0.12  0.84  0.00  0.00  0.95  0.00
  9498                    1.00   0.05  0.00  0.00  0.00  0.00  0.00  0.95  0.00  0.00
  9499                    1.00   0.04  0.00  0.00  0.92  0.04  0.00  0.00  0.00  0.00
  9503                    1.00   0.04  0.01  0.00  0.18  0.78  0.00  0.00  0.94  0.00
  9504                    1.00   0.04  0.00  0.00  0.00  0.00  0.00  0.96  0.00  0.00
  9705                    1.00   0.03  0.00  0.00  0.76  0.20  0.00  0.00  0.20  0.00
  9812                    1.00   0.04  0.00  0.00  0.14  0.82  0.00  0.00  0.20  0.00
  9813                    1.00   0.04  0.00  0.00  0.02  0.94  0.00  0.00  0.00  0.00
  DITCH2                  1.00   0.05  0.00  0.00  0.12  0.00  0.00  0.83  0.00  0.00
  DITCH3                  1.00   0.03  0.04  0.00  0.93  0.00  0.00  0.00  0.93  0.00
  DITCH4                  1.00   0.04  0.10  0.00  0.87  0.00  0.00  0.00  0.87  0.00
  DITCH 1                 1.00   0.03  0.03  0.00  0.93  0.00  0.00  0.00  0.93  0.00
  LINK804                 1.00   1.00  0.00  0.00  0.00  0.00  0.00  0.00  0.00  0.00
  LINK806                 1.00   1.00  0.00  0.00  0.00  0.00  0.00  0.00  0.00  0.00
  LINK812                 1.00   0.04  0.00  0.00  0.20  0.76  0.00  0.00  0.94  0.00
  LINK813                 1.00   0.06  0.00  0.00  0.14  0.80  0.00  0.00  0.00  0.00
  LINK814                 1.00   0.06  0.00  0.00  0.10  0.84  0.00  0.00  0.93  0.00
  LINK815                 1.00   0.07  0.00  0.00  0.62  0.31  0.00  0.00  0.93  0.00
  LINK818                 1.00   0.04  0.01  0.00  0.96  0.00  0.00  0.00  0.95  0.00
  LINK819                 1.00   0.05  0.00  0.00  0.09  0.86  0.00  0.00  0.00  0.00
  LINK820                 1.00   0.42  0.35  0.00  0.00  0.00  0.22  0.00  0.00  0.00
  LINK821                 1.00   0.05  0.21  0.00  0.74  0.00  0.00  0.00  0.01  0.00
  LINK822                 1.00   0.05  0.16  0.00  0.00  0.00  0.79  0.00  0.00  0.00
  LINK836                 1.00   0.29  0.00  0.00  0.00  0.00  0.00  0.71  0.00  0.00
  LINK837                 1.00   1.00  0.00  0.00  0.00  0.00  0.00  0.00  0.00  0.00
  LINK838                 1.00   1.00  0.00  0.00  0.00  0.00  0.00  0.00  0.00  0.00
  LINK839                 1.00   1.00  0.00  0.00  0.00  0.00  0.00  0.00  0.00  0.00
  LINK840                 1.00   1.00  0.00  0.00  0.00  0.00  0.00  0.00  0.00  0.00
  LINK841                 1.00   0.20  0.80  0.00  0.00  0.00  0.00  0.00  0.00  0.00
  LINK842                 1.00   1.00  0.00  0.00  0.00  0.00  0.00  0.00  0.00  0.00
  LINK845                 1.00   1.00  0.00  0.00  0.00  0.00  0.00  0.00  0.00  0.00
  LINK846                 1.00   0.04  0.96  0.00  0.00  0.00  0.00  0.00  0.00  0.00
  LINK847                 1.00   1.00  0.00  0.00  0.00  0.00  0.00  0.00  0.00  0.00
  LINK848                 1.00   1.00  0.00  0.00  0.00  0.00  0.00  0.00  0.00  0.00
  LINK849                 1.00   1.00  0.00  0.00  0.00  0.00  0.00  0.00  0.00  0.00
  LINK850                 1.00   1.00  0.00  0.00  0.00  0.00  0.00  0.00  0.00  0.00
  LINK851                 1.00   1.00  0.00  0.00  0.00  0.00  0.00  0.00  0.00  0.00
  LINK852                 1.00   1.00  0.00  0.00  0.00  0.00  0.00  0.00  0.00  0.00
  LINK853                 1.00   1.00  0.00  0.00  0.00  0.00  0.00  0.00  0.00  0.00
  LINK854                 1.00   1.00  0.00  0.00  0.00  0.00  0.00  0.00  0.00  0.00
  LINK855                 1.00   1.00  0.00  0.00  0.00  0.00  0.00  0.00  0.00  0.00
  LINK856                 1.00   1.00  0.00  0.00  0.00  0.00  0.00  0.00  0.00  0.00
  LINK857                 1.00   1.00  0.00  0.00  0.00  0.00  0.00  0.00  0.00  0.00
  LINK858                 1.00   1.00  0.00  0.00  0.00  0.00  0.00  0.00  0.00  0.00
  
  
  *************************
  Conduit Surcharge Summary
  *************************
  
  ----------------------------------------------------------------------------
                                                           Hours        Hours 
                         --------- Hours Full --------   Above Full   Capacity
  Conduit                Both Ends  Upstream  Dnstream   Normal Flow   Limited
  ----------------------------------------------------------------------------
  12448                      34.92     34.92     35.07      0.01         0.01
  12449                      35.07     35.07     35.97      0.01         0.01
  1317.1                     34.53     34.53     34.70      0.01         0.01
  1330.1                      0.01      0.01     27.67      0.01         0.01
  16445                      13.15     13.15     19.97      0.01         0.01
  2306                        0.01      0.01      5.52      0.01         0.01
  2312                       34.27     34.27     35.47      0.01         0.01
  2315                        0.01      0.01     34.27      0.01         0.01
  6850                        5.95      5.95     26.99      0.01         0.01
  6851                        0.01      0.01      3.55      0.01         0.01
  LINK818                     0.01      0.01     39.33      0.01         0.01
  

  Analysis begun on:  Wed Jun 24 08:05:01 2026
  Analysis ended on:  Wed Jun 24 08:05:15 2026
  Total elapsed time: 00:00:14