
  EPA STORM WATER MANAGEMENT MODEL - VERSION 5.2 (Build 5.2.4)
  ------------------------------------------------------------

  WARNING 04: minimum elevation drop used for Conduit BALDWIN-004
  WARNING 03: negative offset ignored for Link BALDWIN-013
  WARNING 04: minimum elevation drop used for Conduit BALDWIN_OF-003
  WARNING 04: minimum elevation drop used for Conduit BALDWIN_OF-008
  WARNING 04: minimum elevation drop used for Conduit BALDWIN_OF-014
  WARNING 04: minimum elevation drop used for Conduit BALDWIN_OF-019
  WARNING 04: minimum elevation drop used for Conduit CENTERVILLE-009
  WARNING 04: minimum elevation drop used for Conduit CENTERVILLE-017
  WARNING 04: minimum elevation drop used for Conduit CLEAR-018
  WARNING 03: negative offset ignored for Link CROSSWAYS-003
  WARNING 04: minimum elevation drop used for Conduit CROSSWAYS-003
  WARNING 04: minimum elevation drop used for Conduit CWC_PELTIER-007
  WARNING 04: minimum elevation drop used for Conduit GWATCH-002
  WARNING 03: negative offset ignored for Link GWATCH-010
  WARNING 03: negative offset ignored for Link GWATCH-014
  WARNING 03: negative offset ignored for Link GWATCH-018
  WARNING 04: minimum elevation drop used for Conduit GWATCH-018
  WARNING 03: negative offset ignored for Link GWATCH-026
  WARNING 04: minimum elevation drop used for Conduit L_PELTIER_002
  WARNING 03: negative offset ignored for Link L_URC_MT_007
  WARNING 04: minimum elevation drop used for Conduit L_URC_MT_007
  WARNING 03: negative offset ignored for Link RICE_LAKE-003
  WARNING 03: negative offset ignored for Link RICE_LAKE-017
  WARNING 04: minimum elevation drop used for Conduit RICE_LAKE-017
  WARNING 04: minimum elevation drop used for Conduit RICE_LAKE-018
  WARNING 04: minimum elevation drop used for Conduit RICE_LAKE-019
  WARNING 03: negative offset ignored for Link RICE_LAKE-033
  WARNING 04: minimum elevation drop used for Conduit RONDEAU-005
  WARNING 03: negative offset ignored for Link RONDEAU-007
  WARNING 04: minimum elevation drop used for Conduit RONDEAU-007
  WARNING 03: negative offset ignored for Link RONDEAU-008
  WARNING 04: minimum elevation drop used for Conduit RONDEAU-008
  WARNING 04: minimum elevation drop used for Conduit RONDEAU-009
  WARNING 03: negative offset ignored for Link RONDEAU-010
  WARNING 04: minimum elevation drop used for Conduit RONDEAU-010
  WARNING 03: negative offset ignored for Link RONDEAU-011
  WARNING 03: negative offset ignored for Link RONDEAU-012
  WARNING 04: minimum elevation drop used for Conduit RONDEAU-012
  WARNING 03: negative offset ignored for Link RONDEAU_LAKE_OUTFALL
  WARNING 04: minimum elevation drop used for Conduit URC_MT_OF-002
  WARNING 02: maximum depth increased for Node RICE_LAKE_032
  
  ****************
  Analysis Options
  ****************
  Flow Units ............... CFS
  Process Models:
    Rainfall/Runoff ........ YES
    RDII ................... NO
    Snowmelt ............... NO
    Groundwater ............ NO
    Flow Routing ........... YES
    Ponding Allowed ........ YES
    Water Quality .......... NO
  Infiltration Method ...... CURVE_NUMBER
  Flow Routing Method ...... DYNWAVE
  Surcharge Method ......... EXTRAN
  Starting Date ............ 09/13/2010 00:00:00
  Ending Date .............. 09/23/2010 00:00:00
  Antecedent Dry Days ...... 5.0
  Report Time Step ......... 00:10:00
  Wet Time Step ............ 00:05:00
  Dry Time Step ............ 00:00:00
  Routing Time Step ........ 5.00 sec
  Variable Time Step ....... YES
  Maximum Trials ........... 8
  Number of Threads ........ 1
  Head Tolerance ........... 0.005000 ft
  
  
  **************************        Volume         Depth
  Runoff Quantity Continuity     acre-feet        inches
  **************************     ---------       -------
  Initial Snow Cover .......         0.000         0.000
  Total Precipitation ......     11958.755         7.100
  Evaporation Loss .........         0.000         0.000
  Infiltration Loss ........      2922.958         1.735
  Surface Runoff ...........      8937.024         5.306
  Snow Removed .............         0.000         0.000
  Final Snow Cover .........         0.000         0.000
  Final Storage ............       104.390         0.062
  Continuity Error (%) .....        -0.047
  
  
  **************************        Volume        Volume
  Flow Routing Continuity        acre-feet      10^6 gal
  **************************     ---------     ---------
  Dry Weather Inflow .......         0.000         0.000
  Wet Weather Inflow .......      8960.857      2920.029
  Groundwater Inflow .......         0.000         0.000
  RDII Inflow ..............         0.000         0.000
  External Inflow ..........         0.000         0.000
  External Outflow .........      8842.478      2881.453
  Flooding Loss ............         0.000         0.000
  Evaporation Loss .........         0.000         0.000
  Exfiltration Loss ........        76.641        24.975
  Initial Stored Volume ....        14.086         4.590
  Final Stored Volume ......        55.750        18.167
  Continuity Error (%) .....         0.001
  
  
  *************************
  Highest Continuity Errors
  *************************
  Node RICE_LAKE_032 (-1.00%)
  
  
  ***************************
  Time-Step Critical Elements
  ***************************
  Link RONDEAU-006 (22.06%)
  Link RONDEAU-010 (9.66%)
  Link BALDWIN-004 (4.03%)
  Link L_URC_MT_006 (2.67%)
  Link CLEAR-017 (2.05%)
  
  
  ********************************
  Highest Flow Instability Indexes
  ********************************
  Link CLEAR-012 (5)
  Link GEORGE_WATCH_OUTFALL (3)
  Link CLEAR-016 (3)
  Link CLEAR-002 (2)
  Link CLEAR-022 (2)
  
  
  *********************************
  Most Frequent Nonconverging Nodes
  *********************************
  Convergence obtained at all time steps.
  
  
  *************************
  Routing Time Step Summary
  *************************
  Minimum Time Step           :     0.50 sec
  Average Time Step           :     3.79 sec
  Maximum Time Step           :     5.00 sec
  % of Time in Steady State   :     0.00
  Average Iterations per Step :     2.00
  % of Steps Not Converging   :     0.00
  Time Step Frequencies       :
      5.000 -  3.155 sec      :    59.04 %
      3.155 -  1.991 sec      :    33.85 %
      1.991 -  1.256 sec      :     4.88 %
      1.256 -  0.792 sec      :     1.21 %
      0.792 -  0.500 sec      :     1.02 %
  
  
  ***************************
  Subcatchment Runoff Summary
  ***************************
  
  ------------------------------------------------------------------------------------------------------------------------------
                            Total      Total      Total      Total     Imperv       Perv      Total       Total     Peak  Runoff
                           Precip      Runon       Evap      Infil     Runoff     Runoff     Runoff      Runoff   Runoff   Coeff
  Subcatchment                 in         in         in         in         in         in         in    10^6 gal      CFS
  ------------------------------------------------------------------------------------------------------------------------------
  CWC_RC_PELTIER_001         7.10       0.00       0.00       1.15       2.58       3.32       5.90        1.50    84.83   0.831
  CWC_RC_PELTIER_002         7.10       0.00       0.00       2.15       0.89       4.01       4.90       16.32   976.38   0.690
  CWC_RC_PELTIER_003         7.10       0.00       0.00       1.03       2.78       3.24       6.02        2.36   132.30   0.847
  CWC_RC_PELTIER_004         7.10       0.00       0.00       1.04       2.75       3.25       6.01        3.13   175.35   0.846
  CWC_RC_PELTIER_005         7.10       0.00       0.00       0.85       3.22       2.97       6.19        0.74    40.68   0.872
  CWC_RC_PELTIER_006         7.10       0.00       0.00       0.94       3.05       3.06       6.11        3.13   174.20   0.860
  CWC_RC_PELTIER_008         7.10       0.00       0.00       3.57       0.18       3.31       3.48        5.98   375.09   0.491
  CWC_RC_PELTIER_009         7.10       0.00       0.00       3.74       0.00       3.32       3.32        3.25   205.64   0.468
  LRC_RC_MT_049              7.10       0.00       0.00       1.93       2.82       2.30       5.12        2.08   117.67   0.721
  LRC_RC_MT_050              7.10       0.00       0.00       2.66       2.18       2.20       4.38        0.14     8.03   0.617
  LRC_RC_MT_051              7.10       0.00       0.00       2.71       1.98       2.36       4.34        3.89   225.22   0.611
  LRC_RC_MT_052              7.10       0.00       0.00       4.07       1.11       1.88       2.99        0.75    44.69   0.421
  LRC_RC_MT_053              7.10       0.00       0.00       3.11       1.87       2.06       3.93        0.90    52.01   0.554
  LRC_RC_MT_054              7.10       0.00       0.00       2.67       2.30       2.08       4.37        0.77    44.24   0.616
  L_PELTIER_07               7.10       0.00       0.00       0.59       4.28       2.16       6.45        8.63   466.85   0.908
  MRC_RC_BALDWIN_001         7.10       0.00       0.00       0.75       4.37       1.92       6.29       82.98  4503.59   0.886
  MRC_RC_BALDWIN_002         7.10       0.00       0.00       1.95       1.97       3.12       5.09        0.66    38.05   0.717
  MRC_RC_BALDWIN_003         7.10       0.00       0.00       2.94       0.18       3.94       4.12        0.10     6.43   0.580
  MRC_RC_BALDWIN_004         7.10       0.00       0.00       2.35       1.07       3.64       4.70        2.54   151.62   0.662
  MRC_RC_BALDWIN_005         7.10       0.00       0.00       2.69       1.98       2.37       4.35        4.77   276.49   0.613
  MRC_RC_BALDWIN_006         7.10       0.00       0.00       3.56       0.95       2.54       3.48        0.39    23.62   0.491
  MRC_RC_BALDWIN_007         7.10       0.00       0.00       1.35       3.67       2.02       5.69        0.91    50.46   0.802
  MRC_RC_BALDWIN_008         7.10       0.00       0.00       2.23       2.42       2.40       4.81        1.68    96.07   0.678
  MRC_RC_BALDWIN_009         7.10       0.00       0.00       0.84       4.39       1.81       6.20        1.77    96.33   0.873
  MRC_RC_BALDWIN_010         7.10       0.00       0.00       0.30       5.61       1.12       6.73        5.09   268.44   0.948
  MRC_RC_CENTRVILL_001       7.10       0.00       0.00       0.12       5.93       0.97       6.90      112.27  5858.41   0.971
  MRC_RC_CENTRVILL_002       7.10       0.00       0.00       1.69       1.80       3.55       5.36        2.52   146.00   0.754
  MRC_RC_CENTRVILL_003       7.10       0.00       0.00       1.34       2.66       3.04       5.70        2.69   152.54   0.803
  MRC_RC_CENTRVILL_004       7.10       0.00       0.00       1.00       3.30       2.74       6.04        2.88   160.15   0.851
  MRC_RC_CENTRVILL_005       7.10       0.00       0.00       1.56       2.08       3.40       5.48        3.67   211.31   0.772
  MRC_RC_CENTRVILL_006       7.10       0.00       0.00       1.76       1.35       3.94       5.28        3.46   202.86   0.744
  MRC_RC_CENTRVILL_007       7.10       0.00       0.00       2.23       1.50       3.33       4.82        3.31   195.33   0.679
  MRC_RC_CENTRVILL_008       7.10       0.00       0.00       0.35       4.74       1.94       6.68        2.14   114.20   0.941
  MRC_RC_CENTRVILL_009       7.10       0.00       0.00       1.38       2.52       3.14       5.66        1.37    77.94   0.797
  MRC_RC_CENTRVILL_010       7.10       0.00       0.00       2.46       0.87       3.72       4.59        1.56    94.15   0.646
  MRC_RC_CENTRVILL_011       7.10       0.00       0.00       2.28       0.15       4.63       4.78        2.23   136.10   0.673
  MRC_RC_CENTRVILL_012       7.10       0.00       0.00       2.60       0.85       3.60       4.45        0.44    26.45   0.627
  MRC_RC_CENTRVILL_013       7.10       0.00       0.00       1.23       2.86       2.95       5.81        6.83   384.53   0.819
  MRC_RC_CENTRVILL_014       7.10       0.00       0.00       0.46       4.69       1.89       6.58        3.22   172.43   0.926
  MRC_RC_CENTRVILL_015       7.10       0.00       0.00       1.52       1.15       4.38       5.53        1.78   104.16   0.778
  MRC_RC_CENTRVILL_017       7.10       0.00       0.00       2.07       1.38       3.59       4.97        1.83   107.99   0.701
  MRC_RC_GWATCH_001          7.10       0.00       0.00       1.02       3.60       2.42       6.02      230.89 12764.44   0.848
  MRC_RC_GWATCH_002          7.10       0.00       0.00       3.40       1.15       2.50       3.65        1.84   109.91   0.514
  MRC_RC_GWATCH_003          7.10       0.00       0.00       3.46       0.46       3.13       3.59       11.06   683.55   0.505
  MRC_RC_GWATCH_004          7.10       0.00       0.00       4.89       0.09       2.08       2.17        1.19    75.95   0.306
  MRC_RC_GWATCH_005          7.10       0.00       0.00       4.15       0.59       2.31       2.90        1.65   101.44   0.409
  MRC_RC_GWATCH_006          7.10       0.00       0.00       2.72       0.62       3.71       4.33        5.66   344.95   0.610
  MRC_RC_GWATCH_007          7.10       0.00       0.00       4.67       0.00       2.38       2.38        0.44    28.62   0.336
  MRC_RC_GWATCH_008          7.10       0.00       0.00       1.42       3.45       2.17       5.62        2.60   144.67   0.791
  MRC_RC_GWATCH_009          7.10       0.00       0.00       2.96       2.00       2.08       4.08        0.33    18.88   0.575
  MRC_RC_GWATCH_010          7.10       0.00       0.00       4.23       0.89       1.93       2.83        0.67    40.20   0.398
  MRC_RC_GWATCH_011          7.10       0.00       0.00       2.87       0.89       3.29       4.18       14.07   850.60   0.589
  MRC_RC_GWATCH_012          7.10       0.00       0.00       3.18       1.41       2.47       3.87        4.53   268.04   0.545
  MRC_RC_GWATCH_013          7.10       0.00       0.00       2.68       2.06       2.31       4.37        1.13    65.51   0.615
  MRC_RC_GWATCH_014          7.10       0.00       0.00       1.97       2.76       2.30       5.07        6.73   381.28   0.714
  MRC_RC_GWATCH_015          7.10       0.00       0.00       2.70       1.91       2.43       4.35       10.69   620.57   0.612
  MRC_RC_GWATCH_016          7.10       0.00       0.00       1.25       3.19       2.60       5.79        1.56    87.38   0.815
  MRC_RC_GWATCH_017          7.10       0.00       0.00       2.23       1.90       2.92       4.82        1.13    65.90   0.679
  MRC_RC_GWATCH_018          7.10       0.00       0.00       1.25       3.31       2.49       5.79        1.26    70.51   0.816
  MRC_RC_GWATCH_019          7.10       0.00       0.00       1.72       2.21       3.11       5.32        1.58    90.75   0.749
  MRC_RC_GWATCH_020          7.10       0.00       0.00       2.02       1.89       3.14       5.03        1.55    90.10   0.708
  MRC_RC_GWATCH_021          7.10       0.00       0.00       4.52       0.64       1.90       2.54        0.97    59.38   0.358
  MRC_RC_GWATCH_022          7.10       0.00       0.00       2.77       1.87       2.41       4.28        0.81    46.90   0.602
  MRC_RC_GWATCH_023          7.10       0.00       0.00       3.49       0.88       2.69       3.56        0.61    37.13   0.502
  MRC_RC_GWATCH_024          7.10       0.00       0.00       1.09       3.52       2.43       5.95        9.65   534.90   0.838
  MRC_RC_GWATCH_025          7.10       0.00       0.00       2.14       0.73       4.18       4.91       13.21   793.35   0.692
  MRC_RC_GWATCH_026          7.10       0.00       0.00       3.03       0.80       3.22       4.02       27.33  1660.40   0.566
  MRC_RC_GWATCH_027          7.10       0.00       0.00       3.69       0.49       2.88       3.36       17.67  1091.67   0.474
  MRC_RC_GWATCH_028          7.10       0.00       0.00       4.43       0.65       1.97       2.62        1.44    88.42   0.369
  MRC_RC_GWATCH_029          7.10       0.00       0.00       4.62       0.49       1.94       2.44        1.42    88.01   0.343
  MRC_RC_GWATCH_030          7.10       0.00       0.00       3.16       1.16       2.72       3.89        2.46   147.03   0.547
  MRC_RC_GWATCH_031          7.10       0.00       0.00       2.96       1.73       2.35       4.08        4.72   275.78   0.575
  MRC_RC_GWATCH_032          7.10       0.00       0.00       3.78       0.65       2.62       3.27        3.13   191.74   0.461
  MRC_RC_GWATCH_033          7.10       0.00       0.00       4.13       0.94       1.98       2.92        1.46    88.10   0.411
  MRC_RC_MARSHAN_001         7.10       0.00       0.00       0.96       3.91       2.17       6.08       82.80  4546.29   0.856
  MRC_RC_PELTIER_001         7.10       0.00       0.00       0.34       4.62       2.07       6.69      240.91 12842.98   0.942
  MRC_RC_PELTIER_002         7.10       0.00       0.00       1.30       2.84       2.90       5.75       19.73  1111.91   0.809
  MRC_RC_PELTIER_003         7.10       0.00       0.00       1.70       1.65       3.69       5.34        1.95   113.35   0.753
  MRC_RC_PELTIER_004         7.10       0.00       0.00       1.16       2.41       3.47       5.88        0.51    28.78   0.829
  MRC_RC_PELTIER_006         7.10       0.00       0.00       2.42       0.22       4.41       4.63       10.99   673.96   0.653
  MRC_RC_PELTIER_009         7.10       0.00       0.00       1.15       2.97       2.93       5.89        6.21   348.15   0.830
  MRC_RC_RICE_001            7.10       0.00       0.00       2.01       2.48       2.55       5.03       41.55  2374.77   0.709
  MRC_RC_RICE_002            7.10       0.00       0.00       1.23       3.55       2.26       5.81        2.73   151.65   0.818
  MRC_RC_RICE_003            7.10       0.00       0.00       1.85       2.66       2.54       5.20        2.91   165.65   0.732
  MRC_RC_RICE_004            7.10       0.00       0.00       1.93       2.59       2.52       5.11        1.44    82.21   0.720
  MRC_RC_RICE_005            7.10       0.00       0.00       0.77       4.35       1.92       6.27        4.46   242.25   0.882
  MRC_RC_RICE_006            7.10       0.00       0.00       2.17       2.44       2.42       4.87       39.21  2242.02   0.686
  MRC_RC_RICE_007            7.10       0.00       0.00       1.21       3.71       2.12       5.83        4.77   263.29   0.821
  MRC_RC_RICE_008            7.10       0.00       0.00       3.57       1.13       2.35       3.48        1.99   118.94   0.490
  MRC_RC_RICE_009            7.10       0.00       0.00       1.31       3.67       2.06       5.73        4.05   223.83   0.807
  MRC_RC_RICE_LAKE_001       7.10       0.00       0.00       0.86       4.22       1.96       6.18      169.15  9222.10   0.870
  MRC_RC_RICE_LAKE_002       7.10       0.00       0.00       2.60       1.87       2.58       4.45        4.37   254.55   0.627
  MRC_RC_RICE_LAKE_003       7.10       0.00       0.00       2.74       1.87       2.44       4.31        6.28   364.96   0.607
  MRC_RC_RICE_LAKE_004       7.10       0.00       0.00       1.59       3.50       1.95       5.45        4.62   256.09   0.768
  MRC_RC_RICE_LAKE_005       7.10       0.00       0.00       2.58       2.29       2.18       4.47        1.79   102.41   0.630
  MRC_RC_RICE_LAKE_006       7.10       0.00       0.00       3.74       1.18       2.13       3.31        1.28    76.33   0.466
  MRC_RC_RICE_LAKE_007       7.10       0.00       0.00       3.66       1.18       2.22       3.40        0.43    25.66   0.478
  MRC_RC_RICE_LAKE_008       7.10       0.00       0.00       2.21       2.27       2.56       4.83        1.82   104.92   0.681
  MRC_RC_RICE_LAKE_009       7.10       0.00       0.00       1.99       2.56       2.49       5.05        0.43    24.31   0.711
  MRC_RC_RICE_LAKE_010       7.10       0.00       0.00       2.32       1.55       3.17       4.72        0.76    44.89   0.665
  MRC_RC_RICE_LAKE_011       7.10       0.00       0.00       3.03       0.83       3.19       4.02        2.25   136.60   0.567
  MRC_RC_RICE_LAKE_012       7.10       0.00       0.00       1.29       3.49       2.26       5.75        2.31   128.33   0.810
  MRC_RC_RICE_LAKE_013       7.10       0.00       0.00       1.23       3.72       2.08       5.81        2.08   114.75   0.818
  MRC_RC_RICE_LAKE_014       7.10       0.00       0.00       2.72       2.08       2.25       4.33        0.36    20.58   0.610
  MRC_RC_RICE_LAKE_015       7.10       0.00       0.00       0.51       4.93       1.60       6.53        3.69   197.60   0.919
  MRC_RC_RICE_LAKE_016       7.10       0.00       0.00       1.43       3.55       2.06       5.61        6.14   340.41   0.790
  MRC_RC_RICE_LAKE_017       7.10       0.00       0.00       1.03       3.94       2.07       6.01        3.80   208.78   0.847
  MRC_RC_RICE_LAKE_018       7.10       0.00       0.00       0.97       4.15       1.91       6.06        0.50    27.16   0.854
  MRC_RC_RICE_LAKE_019       7.10       0.00       0.00       1.89       2.71       2.44       5.16        1.65    93.49   0.726
  MRC_RC_RICE_LAKE_020       7.10       0.00       0.00       2.32       1.93       2.80       4.73        2.12   123.21   0.666
  MRC_RC_RICE_LAKE_021       7.10       0.00       0.00       0.75       4.42       1.86       6.28        6.96   377.67   0.885
  MRC_RC_RICE_LAKE_022       7.10       0.00       0.00       0.60       4.73       1.71       6.44        1.48    79.39   0.907
  MRC_RC_RICE_LAKE_023       7.10       0.00       0.00       1.07       3.89       2.08       5.97        3.53   194.25   0.841
  MRC_RC_RICE_LAKE_024       7.10       0.00       0.00       1.03       3.64       2.37       6.01        1.44    79.29   0.847
  MRC_RC_RICE_LAKE_025       7.10       0.00       0.00       1.03       3.63       2.38       6.00        1.19    65.84   0.846
  MRC_RC_RICE_LAKE_026       7.10       0.00       0.00       1.56       2.84       2.64       5.48        5.55   313.66   0.772
  URC_MT_008                 7.10       0.00       0.00       3.05       0.73       3.28       4.01        3.69   224.80   0.564
  URC_RC_10A                 7.10       0.00       0.00       4.96       1.76       0.33       2.09        1.58     9.83   0.294
  URC_RC_CLEAR_001           7.10       0.00       0.00       0.75       3.94       2.35       6.29      180.23  9845.91   0.886
  URC_RC_CLEAR_002           7.10       0.00       0.00       2.32       0.78       3.95       4.73       14.89   896.67   0.666
  URC_RC_CLEAR_003           7.10       0.00       0.00       2.30       0.87       3.88       4.75       15.23   915.03   0.669
  URC_RC_CLEAR_004           7.10       0.00       0.00       1.25       2.91       2.88       5.80        5.13   288.46   0.816
  URC_RC_CLEAR_005           7.10       0.00       0.00       1.12       3.14       2.77       5.92        2.93   163.46   0.833
  URC_RC_CLEAR_006           7.10       0.00       0.00       1.68       2.44       2.93       5.36        3.40   194.24   0.755
  URC_RC_CLEAR_007           7.10       0.00       0.00       0.80       3.89       2.34       6.23        7.77   425.58   0.878
  URC_RC_CLEAR_008           7.10       0.00       0.00       1.32       2.85       2.87       5.72        6.83   384.80   0.806
  URC_RC_CLEAR_009           7.10       0.00       0.00       0.31       5.24       1.49       6.72        6.54   346.30   0.947
  URC_RC_CLEAR_009A          7.10       0.00       0.00       4.94       1.77       0.35       2.12        0.80    27.55   0.298
  URC_RC_CLEAR_010           7.10       0.00       0.00       0.54       4.48       2.02       6.50       13.68   737.03   0.916
  URC_RC_CLEAR_011           7.10       0.00       0.00       0.73       3.92       2.39       6.31        5.30   289.56   0.889
  URC_RC_CLEAR_012           7.10       0.00       0.00       1.13       3.25       2.66       5.91        4.23   235.95   0.832
  URC_RC_CLEAR_013           7.10       0.00       0.00       2.17       1.75       3.13       4.88        3.10   181.47   0.687
  URC_RC_CLEAR_014           7.10       0.00       0.00       1.79       2.30       2.96       5.26        1.58    90.46   0.741
  URC_RC_CLEAR_015           7.10       0.00       0.00       1.45       2.66       2.94       5.60       15.83   897.38   0.788
  URC_RC_CLEAR_016           7.10       0.00       0.00       2.14       1.33       3.58       4.90        9.36   554.08   0.691
  URC_RC_CLEAR_017           7.10       0.00       0.00       2.93       0.66       3.46       4.12       16.64  1014.32   0.580
  URC_RC_CLEAR_018           7.10       0.00       0.00       3.05       0.36       3.64       4.00       22.72  1403.33   0.564
  URC_RC_CLEAR_019           7.10       0.00       0.00       2.39       0.76       3.90       4.66        5.75   346.74   0.657
  URC_RC_CLEAR_020           7.10       0.00       0.00       1.39       2.67       2.98       5.65       28.09  1590.88   0.796
  URC_RC_CLEAR_021           7.10       0.00       0.00       0.50       4.52       2.01       6.53       14.52   781.09   0.920
  URC_RC_CLEAR_022           7.10       0.00       0.00       1.97       1.83       3.24       5.07        7.84   456.21   0.715
  URC_RC_CLEAR_12A           7.10       0.00       0.00       4.97       1.76       0.32       2.07        3.85    17.04   0.292
  URC_RC_CROSSWAYS_001       7.10       0.00       0.00       1.62       2.58       2.85       5.43      223.96 12750.60   0.764
  URC_RC_CROSSWAYS_002       7.10       0.00       0.00       3.54       0.57       2.93       3.51       38.66  2377.73   0.494
  URC_RC_CROSSWAYS_003       7.10       0.00       0.00       3.56       0.49       3.01       3.49        1.49    91.75   0.492
  URC_RC_CROSSWAYS_004       7.10       0.00       0.00       2.01       2.84       2.19       5.04        2.07   117.01   0.709
  URC_RC_CROSSWAYS_005       7.10       0.00       0.00       3.53       1.04       2.47       3.52        5.56   334.04   0.495
  URC_RC_CROSSWAYS_006       7.10       0.00       0.00       3.87       0.75       2.43       3.18        1.28    77.86   0.448
  URC_RC_HOWARD_001          7.10       0.00       0.00       1.31       3.30       2.42       5.73      162.61  9076.70   0.806
  URC_RC_HOWARD_002          7.10       0.00       0.00       1.60       2.25       3.19       5.44        4.21   241.28   0.766
  URC_RC_HOWARD_003          7.10       0.00       0.00       2.19       2.14       2.71       4.85        2.00   115.31   0.683
  URC_RC_HOWARD_004          7.10       0.00       0.00       2.87       1.28       2.89       4.17        0.25    14.72   0.588
  URC_RC_HOWARD_005          7.10       0.00       0.00       3.31       0.95       2.79       3.74        4.27   257.32   0.527
  URC_RC_HOWARD_006          7.10       0.00       0.00       2.72       1.62       2.71       4.33        0.96    56.14   0.609
  URC_RC_HOWARD_007          7.10       0.00       0.00       3.33       0.76       2.96       3.72       24.79  1507.90   0.524
  URC_RC_HOWARD_008          7.10       0.00       0.00       3.61       0.65       2.79       3.44        4.48   274.24   0.485
  URC_RC_HOWARD_009          7.10       0.00       0.00       3.90       0.40       2.75       3.15        6.42   399.20   0.443
  URC_RC_HOWARD_010          7.10       0.00       0.00       4.33       0.74       1.98       2.73        1.89   114.83   0.384
  URC_RC_MT_001              7.10       0.00       0.00       2.48       0.62       3.95       4.57       21.84  1326.35   0.644
  URC_RC_MT_002              7.10       0.00       0.00       2.02       1.31       3.71       5.03        8.79   519.28   0.708
  URC_RC_MT_003              7.10       0.00       0.00       2.75       0.44       3.85       4.30       34.12  2093.69   0.605
  URC_RC_MT_004              7.10       0.00       0.00       2.41       0.38       4.26       4.64      121.61  7425.02   0.654
  URC_RC_MT_005              7.10       0.00       0.00       2.79       0.46       3.80       4.26       59.84  3668.64   0.600
  URC_RC_MT_006              7.10       0.00       0.00       2.03       1.46       3.55       5.02       24.07  1416.82   0.706
  URC_RC_MT_007              7.10       0.00       0.00       1.69       1.79       3.56       5.35       15.78   916.41   0.754
  URC_RC_MT_009              7.10       0.00       0.00       1.25       3.46       2.33       5.79        2.36   131.38   0.816
  URC_RC_MUD_001             7.10       0.00       0.00       1.32       3.09       2.63       5.72       83.71  4695.28   0.805
  URC_RC_MUD_002             7.10       0.00       0.00       2.25       1.61       3.19       4.80       10.50   616.92   0.676
  URC_RC_MUD_003             7.10       0.00       0.00       3.03       0.73       3.29       4.02       13.69   833.11   0.566
  URC_RC_MUD_004             7.10       0.00       0.00       3.49       1.24       2.31       3.55        5.68   338.02   0.501
  URC_RC_MUD_005             7.10       0.00       0.00       3.83       0.44       2.78       3.22       14.81   917.22   0.454
  URC_RC_MUD_006             7.10       0.00       0.00       3.57       0.94       2.54       3.48        7.28   439.52   0.490
  URC_RC_RONDEAU_001         7.10       0.00       0.00       0.71       4.22       2.11       6.33      127.90  6951.08   0.891
  URC_RC_RONDEAU_002         7.10       0.00       0.00       3.48       1.16       2.41       3.57        9.15   546.60   0.503
  URC_RC_RONDEAU_003         7.10       0.00       0.00       1.89       2.57       2.58       5.16        3.19   181.60   0.726
  URC_RC_RONDEAU_004         7.10       0.00       0.00       4.36       0.59       2.10       2.69        0.87    53.40   0.379
  URC_RC_RONDEAU_005         7.10       0.00       0.00       4.30       0.04       2.71       2.75        2.94   187.78   0.387
  URC_RC_RONDEAU_006         7.10       0.00       0.00       4.97       0.00       2.09       2.09        0.63    40.67   0.295
  URC_RC_RONDEAU_007         7.10       0.00       0.00       2.85       0.10       4.10       4.20        0.98    60.68   0.591
  URC_RC_RONDEAU_008         7.10       0.00       0.00       1.69       2.70       2.65       5.35       10.38   589.42   0.754
  URC_RC_RONDEAU_009         7.10       0.00       0.00       3.70       0.00       3.36       3.36        2.97   187.97   0.473
  URC_RC_RONDEAU_010         7.10       0.00       0.00       3.81       0.00       3.24       3.24        0.82    52.21   0.457
  URC_RC_RONDEAU_011         7.10       0.00       0.00       2.59       1.80       2.65       4.46       22.30  1301.08   0.628
  URC_RC_RONDEAU_012         7.10       0.00       0.00       4.04       0.46       2.55       3.01        8.01   497.07   0.424
  URC_RC_RONDEAU_013         7.10       0.00       0.00       4.53       0.14       2.39       2.53        1.19    75.71   0.356
  URC_RC_RONDEAU_014         7.10       0.00       0.00       3.93       0.66       2.46       3.12       15.97   979.03   0.440
  
  
  ******************
  Node Depth Summary
  ******************
  
  ---------------------------------------------------------------------------------
                                 Average  Maximum  Maximum  Time of Max    Reported
                                   Depth    Depth      HGL   Occurrence   Max Depth
  Node                 Type         Feet     Feet     Feet  days hr:min        Feet
  ---------------------------------------------------------------------------------
  BALDWIN_LAKE         JUNCTION     0.02     1.03   875.90     0  11:59        0.99
  CENTERVILLE_LAKE     JUNCTION     0.02     0.98   877.98     0  11:59        0.91
  CLEAR_LAKE           JUNCTION     0.05     1.22   889.22     0  11:58        1.09
  CROSSWAYS_LAKE       JUNCTION     0.03     1.44   887.44     0  11:58        1.29
  GEORGE_WATCH_LAK     JUNCTION     0.05     1.73   876.60     0  11:58        1.53
  HOWARD_LAKE          JUNCTION     0.03     1.19   888.19     0  11:58        1.10
  J_UPPER_RICE_CR      JUNCTION     0.04     1.38   881.38     0  11:58        1.27
  MARSHAN_LAKE         JUNCTION     0.02     1.08   875.95     0  11:59        1.04
  MUD_LAKE             JUNCTION     0.02     0.86   888.36     0  11:59        0.82
  PELTIER_LAKE         JUNCTION     0.04     1.58   875.58     0  11:58        1.35
  RICE_LAKE            JUNCTION     0.06     1.53   876.53     0  11:59        1.41
  RICE_LAKE_032        JUNCTION     0.53     3.51   892.41     0  12:06        3.35
  RICE_LAKE_035        JUNCTION     0.32     7.85   902.46     0  12:10        7.85
  RICE_LAKE_037        JUNCTION     0.36     7.62   900.88     0  12:14        7.61
  RONDEAU_LAKE         JUNCTION     0.04     1.18   884.86     0  11:59        1.10
  OFALL-10             OUTFALL      0.00     0.00     0.00     0  00:00        0.00
  OFALL-BALDWIN        OUTFALL      0.00     0.00     0.00     0  00:00        0.00
  OFALL-CENTER         OUTFALL      0.00     0.00     0.00     0  00:00        0.00
  OFALL-CLEAR          OUTFALL      0.00     0.00     0.00     0  00:00        0.00
  OFALL-GWATCH         OUTFALL      0.00     0.00     0.00     0  00:00        0.00
  OFALL-HOWARD         OUTFALL      0.00     0.00     0.00     0  00:00        0.00
  OFALL-MARSH          OUTFALL      0.00     0.00     0.00     0  00:00        0.00
  OFALL-MUD            OUTFALL      0.00     0.00     0.00     0  00:00        0.00
  OFALL-PELTIER        OUTFALL      0.00     0.00     0.00     0  00:00        0.00
  OFALL-RICE           OUTFALL      0.00     0.00     0.00     0  00:00        0.00
  OFALL-URC            OUTFALL      0.00     0.00     0.00     0  00:00        0.00
  OFALL_CROSSWAYS      OUTFALL      0.00     0.00     0.00     0  00:00        0.00
  BALDWIN_002          STORAGE      0.71     3.15   888.15     0  12:04        2.95
  BALDWIN_003          STORAGE      0.18     2.41   891.41     0  12:36        2.41
  BALDWIN_004          STORAGE      2.15     4.40   891.40     0  12:34        4.40
  BALDWIN_005          STORAGE      0.27     5.54   894.54     0  12:26        5.54
  BALDWIN_006          STORAGE      0.16     1.87   898.87     0  12:34        1.86
  BALDWIN_007          STORAGE      8.04     8.93   904.93     0  12:10        8.93
  BALDWIN_008          STORAGE      0.23     3.11   901.11     0  13:02        3.10
  BALDWIN_009          STORAGE      2.97     6.66   903.66     0  12:21        6.66
  BALDWIN_011          STORAGE      0.22     4.51   897.51     0  12:27        4.51
  BALDWIN_013          STORAGE      0.03     1.16   901.16     0  12:06        1.10
  BALDWIN_014          STORAGE      1.57     3.19   890.19     0  12:10        3.19
  BALDWIN_019          STORAGE      1.33     5.19   894.19     0  14:38        5.19
  CENTERVILLE_002      STORAGE      0.10     2.87   887.87     0  12:10        2.87
  CENTERVILLE_003      STORAGE      0.22     7.00   891.00     0  12:10        7.00
  CENTERVILLE_005      STORAGE      0.27     5.42   902.42     0  12:33        5.42
  CENTERVILLE_006      STORAGE      0.90     9.37   896.37     0  15:23        9.37
  CENTERVILLE_007      STORAGE      0.25     3.00   897.00     0  12:01        2.93
  CENTERVILLE_008      STORAGE      0.12     2.33   902.33     0  12:09        2.32
  CENTERVILLE_009      STORAGE      0.64     3.70   903.70     0  18:31        3.70
  CENTERVILLE_010      STORAGE      0.43     2.84   903.84     0  17:57        2.84
  CENTERVILLE_011      STORAGE      0.17     2.26   905.26     0  12:37        2.26
  CENTERVILLE_012      STORAGE      0.10     1.67   904.67     0  12:10        1.66
  CENTERVILLE_013      STORAGE      0.51     5.87   905.87     0  12:14        5.87
  CENTERVILLE_014      STORAGE      0.32     3.78   907.78     0  13:37        3.78
  CENTERVILLE_015      STORAGE      0.18     2.70   907.70     0  13:56        2.70
  CENTERVILLE_017      STORAGE      0.24     3.21   908.21     0  12:20        3.21
  CLEAR_002            STORAGE      1.35    10.61   901.61     0  12:57       10.61
  CLEAR_003            STORAGE      1.49    10.05   913.05     0  12:54       10.05
  CLEAR_004            STORAGE      0.26     5.69   894.69     0  12:12        5.69
  CLEAR_005            STORAGE      0.62     5.87   899.87     0  12:26        5.87
  CLEAR_006            STORAGE      0.49     3.74   901.74     0  15:14        3.74
  CLEAR_007            STORAGE      0.38     3.41   905.41     0  12:46        3.41
  CLEAR_008            STORAGE      0.94     7.46   903.46     0  13:18        7.46
  CLEAR_009            STORAGE      4.85     9.02   900.02     0  12:25        9.02
  CLEAR_010            STORAGE      0.66     5.04   906.04     0  13:41        5.04
  CLEAR_011            STORAGE      0.29     5.26   908.26     0  12:18        5.26
  CLEAR_012            STORAGE      0.53     7.52   912.52     0  12:12        7.50
  CLEAR_013            STORAGE      2.67     7.42   908.42     0  12:34        7.42
  CLEAR_014            STORAGE      2.51     6.86   916.86     1  12:11        6.86
  CLEAR_015            STORAGE      3.45    10.34   922.34     1  01:14       10.34
  CLEAR_016            STORAGE      2.01     7.29   929.29     0  19:12        7.29
  CLEAR_017            STORAGE      1.42     6.16   935.16     0  13:58        6.16
  CLEAR_018            STORAGE      3.34     6.45   936.45     1  00:06        6.45
  CLEAR_019            STORAGE      0.22     3.45   943.45     0  12:33        3.44
  CLEAR_020            STORAGE      4.67    11.92   903.92     0  21:11       11.92
  CLEAR_021            STORAGE      1.16    14.22   917.22     0  14:19       14.22
  CLEAR_022            STORAGE      0.44    11.50   928.50     0  12:14       11.48
  CROSSWAYS_002        STORAGE      1.80     5.04   902.04     0  13:32        5.04
  CROSSWAYS_003        STORAGE      1.81     5.29   902.29     0  12:20        5.29
  CROSSWAYS_004        STORAGE      0.32     4.04   894.04     0  15:04        4.04
  CROSSWAYS_005        STORAGE      0.28     6.10   898.10     0  12:19        6.10
  CROSSWAYS_006        STORAGE      0.08     4.28   901.28     0  12:08        4.27
  CWC_PELTIER_001      STORAGE      0.20     3.13   892.13     0  12:06        3.06
  GWATCH_002           STORAGE      4.10     4.33   882.33     1  00:11        4.33
  GWATCH_003           STORAGE      0.29     5.28   883.28     0  12:09        5.28
  GWATCH_004           STORAGE      2.04     4.27   888.27     0  12:07        4.18
  GWATCH_005           STORAGE      1.05     2.39   889.39     0  12:10        2.38
  GWATCH_006           STORAGE      1.06     7.95   888.95     0  12:09        7.95
  GWATCH_007           STORAGE      0.08     2.25   891.25     0  12:30        2.25
  GWATCH_008           STORAGE      0.13     4.46   894.46     0  12:10        4.46
  GWATCH_009           STORAGE      0.06     2.11   895.11     0  12:10        2.10
  GWATCH_010           STORAGE      2.06     4.80   895.80     0  12:08        4.78
  GWATCH_011           STORAGE      1.28     5.21   888.21     0  13:03        5.20
  GWATCH_012           STORAGE      0.44     5.10   896.10     0  12:31        5.10
  GWATCH_013           STORAGE      1.29     4.41   904.41     0  16:07        4.41
  GWATCH_014           STORAGE      2.53     7.97   906.97     0  13:13        7.97
  GWATCH_015           STORAGE      3.63     6.93   903.93     0  18:26        6.93
  GWATCH_016           STORAGE      2.74     5.51   904.51     0  20:03        5.51
  GWATCH_018           STORAGE      3.74     6.51   904.51     0  20:04        6.51
  GWATCH_019           STORAGE      3.74     6.51   904.51     0  20:01        6.51
  GWATCH_020           STORAGE      3.67     6.56   905.56     0  12:45        6.55
  GWATCH_021           STORAGE      4.73    10.19   904.19     0  23:19       10.19
  GWATCH_022           STORAGE      0.23     3.62   909.62     0  12:10        3.62
  GWATCH_023           STORAGE      0.05     1.66   886.66     0  12:08        1.65
  GWATCH_024           STORAGE      0.76     3.42   885.42     1  00:20        3.42
  GWATCH_025           STORAGE      1.30     5.43   885.43     0  23:14        5.43
  GWATCH_026           STORAGE      3.43     8.36   886.36     0  15:19        8.36
  GWATCH_027           STORAGE      0.72     5.75   890.75     0  12:58        5.75
  GWATCH_028           STORAGE      0.08     3.25   893.25     0  12:09        3.25
  GWATCH_029           STORAGE      0.12     4.49   895.49     0  12:09        4.48
  GWATCH_030           STORAGE      0.28     3.02   893.02     0  12:34        3.02
  GWATCH_031           STORAGE      1.63     5.15   899.15     0  18:48        5.15
  GWATCH_032           STORAGE      0.14     2.29   892.29     0  12:10        2.29
  GWATCH_033           STORAGE      5.56    11.03   903.03     0  20:40       11.03
  HOWARD_002           STORAGE      0.21     9.24   903.24     0  12:10        9.24
  HOWARD_003           STORAGE      0.11     3.44   894.44     0  12:10        3.43
  HOWARD_004           STORAGE      0.03     1.42   895.42     0  12:01        1.38
  HOWARD_005           STORAGE      0.23     5.30   903.30     0  12:20        5.30
  HOWARD_006           STORAGE      0.16     4.42   903.42     0  12:20        4.42
  HOWARD_007           STORAGE      1.71     7.74   899.74     0  14:42        7.74
  HOWARD_008           STORAGE      0.21     6.30   905.30     0  12:10        6.29
  HOWARD_009           STORAGE      0.24     3.32   903.32     0  12:43        3.32
  MUD_002              STORAGE      0.45     7.05   899.05     0  12:36        7.05
  MUD_003              STORAGE      0.58     6.63   899.63     0  13:02        6.63
  MUD_004              STORAGE      0.26     5.83   898.83     0  12:21        5.83
  MUD_005              STORAGE      0.86     6.41   897.41     0  16:35        6.41
  MUD_006              STORAGE      0.41     4.76   899.76     0  12:39        4.76
  PELTIER_002          STORAGE      0.61     3.47   885.47     0  14:36        3.47
  PELTIER_003          STORAGE      0.36     2.61   886.61     0  13:56        2.61
  PELTIER_006          STORAGE      0.91     9.61   903.61     0  12:10        9.61
  PELTIER_009          STORAGE      0.36     3.37   886.37     0  13:02        3.37
  RICE_LAKE_002        STORAGE      1.18     3.00   886.00     0  13:13        3.00
  RICE_LAKE_003        STORAGE      1.19     3.11   886.11     0  13:01        3.11
  RICE_LAKE_004        STORAGE      0.19     2.55   881.55     0  12:26        2.55
  RICE_LAKE_005        STORAGE      2.98     3.88   885.88     0  12:10        3.88
  RICE_LAKE_006        STORAGE      4.36     4.56   885.56     1  00:11        4.56
  RICE_LAKE_007        STORAGE      5.11     5.36   886.36     1  00:11        5.36
  RICE_LAKE_009        STORAGE      0.70     2.82   886.82     0  12:09        2.82
  RICE_LAKE_010        STORAGE      0.14     4.20   890.20     0  12:08        4.17
  RICE_LAKE_011        STORAGE      0.11     2.66   890.66     0  12:18        2.66
  RICE_LAKE_012        STORAGE      2.25     8.58   893.58     0  15:51        8.58
  RICE_LAKE_013        STORAGE      1.59     4.51   894.51     0  12:10        4.51
  RICE_LAKE_014        STORAGE      0.03     1.58   896.58     0  12:02        1.51
  RICE_LAKE_015        STORAGE      0.90     3.72   895.72     0  13:39        3.72
  RICE_LAKE_016        STORAGE      0.70     5.07   890.07     0  12:45        5.07
  RICE_LAKE_017        STORAGE      0.72     6.02   891.02     0  12:10        6.01
  RICE_LAKE_018        STORAGE      0.75     4.27   890.27     0  12:47        4.27
  RICE_LAKE_019        STORAGE      0.76     4.46   890.46     0  12:37        4.46
  RICE_LAKE_020        STORAGE      1.61     5.06   894.06     0  12:21        5.06
  RICE_LAKE_021        STORAGE      1.97     6.25   893.25     0  17:42        6.25
  RICE_LAKE_022        STORAGE      1.99     4.47   893.47     0  18:56        4.47
  RICE_LAKE_023        STORAGE      1.33     3.67   897.67     0  12:31        3.67
  RICE_LAKE_024        STORAGE      4.79     5.59   897.59     0  13:39        5.59
  RICE_LAKE_025        STORAGE      4.23     5.63   897.63     0  14:46        5.63
  RICE_LAKE_026        STORAGE      2.29     5.30   893.30     1  00:06        5.30
  RICE_LAKE_031        STORAGE      2.23     7.19   891.19     1  00:10        7.19
  RICE_LAKE_033        STORAGE      0.53     5.15   897.15     0  13:27        5.15
  RICE_LAKE_036        STORAGE      1.62     9.47   903.47     0  14:58        9.47
  RICE_LAKE_038        STORAGE      5.40     8.59   903.59     0  14:52        8.59
  RICE_LAKE_039        STORAGE      1.46     7.34   905.34     0  15:18        7.34
  RONDEAU_003          STORAGE      0.21     2.77   888.76     0  12:31        2.77
  RONDEAU_004          STORAGE      2.06     4.19   887.19     0  12:06        4.07
  RONDEAU_005          STORAGE      1.66     3.90   888.90     1  06:42        3.90
  RONDEAU_006          STORAGE      1.66     3.90   888.90     1  06:44        3.90
  RONDEAU_007          STORAGE      1.65     3.90   888.90     1  06:42        3.90
  RONDEAU_008          STORAGE      1.72     3.87   888.87     1  12:42        3.87
  RONDEAU_009          STORAGE      1.67     3.92   888.92     1  06:29        3.92
  RONDEAU_010          STORAGE      1.77     4.01   889.01     1  00:52        4.01
  RONDEAU_011          STORAGE      5.71     8.18   889.18     1  00:07        8.17
  RONDEAU_012          STORAGE      2.22     6.87   891.87     0  20:26        6.87
  RONDEAU_013          STORAGE      0.15     2.45   893.45     0  12:09        2.45
  RONDEAU_014          STORAGE      0.52     3.59   895.59     0  14:32        3.59
  ST_URC_MT_008        STORAGE      0.17     5.50   898.50     0  12:10        5.50
  S_PELTIER_002        STORAGE      0.41     7.42   896.42     0  12:08        7.39
  S_PELTIER_003        STORAGE      0.27     5.96   901.96     0  12:11        5.95
  S_PELTIER_004        STORAGE      0.54     6.33   903.33     0  12:54        6.33
  S_PELTIER_005        STORAGE      0.72     4.50   908.50     0  17:27        4.50
  S_PELTIER_006        STORAGE      0.86     5.55   908.55     0  13:39        5.55
  S_PELTIER_007        STORAGE      0.79     7.29   904.29     0  14:03        7.29
  S_PELTIER_008        STORAGE      0.33     3.59   908.59     0  13:10        3.59
  S_URC_MT_002         STORAGE      3.22     4.84   887.84     0  19:27        4.84
  S_URC_MT_007         STORAGE      1.53     6.51   895.51     0  13:36        6.51
  S_URC_MT_06          STORAGE      1.25     3.92   892.92     1  00:08        3.92
  
  
  *******************
  Node Inflow Summary
  *******************
  
  -------------------------------------------------------------------------------------------------
                                  Maximum  Maximum                  Lateral       Total        Flow
                                  Lateral    Total  Time of Max      Inflow      Inflow     Balance
                                   Inflow   Inflow   Occurrence      Volume      Volume       Error
  Node                 Type           CFS      CFS  days hr:min    10^6 gal    10^6 gal     Percent
  -------------------------------------------------------------------------------------------------
  BALDWIN_LAKE         JUNCTION   4772.02  4884.35     0  12:00        88.1         110      -0.001
  CENTERVILLE_LAKE     JUNCTION   6018.55  6133.61     0  12:00         115         152      -0.002
  CLEAR_LAKE           JUNCTION   9845.91 10172.77     0  12:00         180         397      -0.001
  CROSSWAYS_LAKE       JUNCTION  12750.60 12861.57     0  12:00         225         274      -0.003
  GEORGE_WATCH_LAK     JUNCTION  12764.44 13278.71     0  12:00         231         359      -0.002
  HOWARD_LAKE          JUNCTION   9191.53  9379.26     0  12:00         165         213      -0.002
  J_UPPER_RICE_CR      JUNCTION  14645.07 14673.34     0  12:00         241         293      -0.002
  MARSHAN_LAKE         JUNCTION   4546.29  4546.29     0  12:00        82.9        82.9      -0.002
  MUD_LAKE             JUNCTION   4695.28  4854.30     0  12:00        83.9         136      -0.001
  PELTIER_LAKE         JUNCTION  12842.98 13423.50     0  12:00         241         326      -0.002
  RICE_LAKE            JUNCTION   9327.02  9603.99     0  12:00         171         337      -0.004
  RICE_LAKE_032        JUNCTION    233.86   239.25     0  12:00        4.19        7.15      -0.994
  RICE_LAKE_035        JUNCTION    242.25   244.79     0  12:00        4.46        8.53       0.315
  RICE_LAKE_037        JUNCTION    263.29   265.57     0  12:00        4.77        6.78       0.315
  RONDEAU_LAKE         JUNCTION   7497.69  7563.16     0  12:00         137         202      -0.001
  OFALL-10             OUTFALL       0.00  7716.50     0  11:59           0         202       0.000
  OFALL-BALDWIN        OUTFALL       0.00  4956.94     0  11:59           0         110       0.000
  OFALL-CENTER         OUTFALL       0.00  6302.38     0  11:59           0         152       0.000
  OFALL-CLEAR          OUTFALL       0.00 10385.22     0  11:59           0         397       0.000
  OFALL-GWATCH         OUTFALL       0.00 13519.83     0  11:59           0         359       0.000
  OFALL-HOWARD         OUTFALL       0.00  9510.61     0  11:59           0         213       0.000
  OFALL-MARSH          OUTFALL       0.00  4607.90     0  11:59           0        82.9       0.000
  OFALL-MUD            OUTFALL       0.00  4923.95     0  11:59           0         136       0.000
  OFALL-PELTIER        OUTFALL       0.00 13778.92     0  11:59           0         326       0.000
  OFALL-RICE           OUTFALL       0.00  9891.98     0  11:59           0         337       0.000
  OFALL-URC            OUTFALL       0.00 14726.83     0  12:00           0         293       0.000
  OFALL_CROSSWAYS      OUTFALL       0.00 13013.38     0  11:59           0         274       0.000
  BALDWIN_002          STORAGE      38.05    46.38     0  12:00       0.658        3.29      -0.000
  BALDWIN_003          STORAGE       6.43     9.75     0  12:00       0.104       0.147       0.001
  BALDWIN_004          STORAGE     151.62   151.62     0  12:00        2.55        3.03       0.001
  BALDWIN_005          STORAGE     276.49   282.03     0  12:00        4.79         6.1       0.000
  BALDWIN_006          STORAGE      23.62    31.37     0  12:00       0.394        1.31       0.008
  BALDWIN_007          STORAGE      50.46    50.46     0  12:00       0.914         1.7      -0.000
  BALDWIN_008          STORAGE      96.07   106.04     0  12:00        1.69        3.46      -0.016
  BALDWIN_009          STORAGE      96.33    96.33     0  12:00        1.78        1.92       0.080
  BALDWIN_011          STORAGE     233.26   261.11     0  12:00        4.04        4.96       0.207
  BALDWIN_013          STORAGE      52.01    52.01     0  12:00       0.902       0.902      -1.048
  BALDWIN_014          STORAGE      44.24    44.24     0  12:00       0.777       0.796       0.000
  BALDWIN_019          STORAGE     162.36   190.29     0  12:00        2.84        7.84      -0.006
  CENTERVILLE_002      STORAGE     146.00   146.00     0  12:00        2.52        2.52      -0.000
  CENTERVILLE_003      STORAGE     152.54   152.54     0  12:00         2.7         2.7       0.001
  CENTERVILLE_005      STORAGE     211.31   211.31     0  12:00        3.68        3.68       0.026
  CENTERVILLE_006      STORAGE     202.86   469.19     0  12:00        3.47        28.3       0.184
  CENTERVILLE_007      STORAGE     195.33   299.59     0  12:00        3.33        24.8      -0.098
  CENTERVILLE_008      STORAGE     114.20   120.04     0  12:00        2.14        7.77       0.000
  CENTERVILLE_009      STORAGE      77.94    83.66     0  12:00        1.37        5.62      -0.007
  CENTERVILLE_010      STORAGE      94.15   110.69     0  12:00        1.57        4.25      -0.027
  CENTERVILLE_011      STORAGE     136.10   136.10     0  12:00        2.24        2.24      -0.005
  CENTERVILLE_012      STORAGE      26.45    26.45     0  12:00        0.44        0.44      -0.024
  CENTERVILLE_013      STORAGE     384.53   397.16     0  12:00        6.85        13.7       0.002
  CENTERVILLE_014      STORAGE     172.43   172.43     0  12:00        3.22        3.22       0.001
  CENTERVILLE_015      STORAGE     104.16   118.21     0  12:00        1.79        3.62      -0.003
  CENTERVILLE_017      STORAGE     107.99   107.99     0  12:00        1.84        1.84       0.025
  CLEAR_002            STORAGE     896.67   896.67     0  12:00          15          15      -0.007
  CLEAR_003            STORAGE     915.03   915.03     0  12:00        15.3        15.3      -0.006
  CLEAR_004            STORAGE     288.46   288.46     0  12:00        5.14        5.14       0.040
  CLEAR_005            STORAGE     163.46   184.98     0  12:00        2.93        14.1      -0.002
  CLEAR_006            STORAGE     194.24   213.20     0  12:00        3.41        11.2       0.007
  CLEAR_007            STORAGE     425.58   425.58     0  12:00        7.78        7.78       0.000
  CLEAR_008            STORAGE     384.80   416.03     0  12:00        6.84        22.1      -0.007
  CLEAR_009            STORAGE     372.18   414.90     0  12:00        7.34        70.1      -0.001
  CLEAR_010            STORAGE     743.84   743.84     0  12:00        15.3        15.3       0.007
  CLEAR_011            STORAGE     289.56   289.56     0  12:00        5.31        5.31       0.081
  CLEAR_012            STORAGE     247.12   247.12     0  12:00        8.09        8.09      -0.004
  CLEAR_013            STORAGE     181.47   212.57     0  12:00        3.12        75.3      -0.001
  CLEAR_014            STORAGE      90.46   136.63     0  12:00        1.58        72.2       0.000
  CLEAR_015            STORAGE     897.38   938.67     0  12:00        15.9        70.6      -0.001
  CLEAR_016            STORAGE     554.08   589.01     0  12:00         9.4        54.7       0.005
  CLEAR_017            STORAGE    1014.32  1025.27     0  12:00        16.7        45.3      -0.000
  CLEAR_018            STORAGE    1403.33  1426.02     0  12:00        22.9        28.8      -0.002
  CLEAR_019            STORAGE     346.74   346.74     0  12:00        5.77        5.77       0.000
  CLEAR_020            STORAGE    1590.88  1729.27     0  12:00        28.1        64.3      -0.003
  CLEAR_021            STORAGE     781.09   836.89     0  12:00        14.5        22.4       0.001
  CLEAR_022            STORAGE     456.21   456.21     0  12:00        7.86        7.86       0.013
  CROSSWAYS_002        STORAGE    2377.73  2386.52     0  12:00        38.9        40.6       0.000
  CROSSWAYS_003        STORAGE      91.75    91.75     0  12:00         1.5        1.56       0.032
  CROSSWAYS_004        STORAGE     117.01   183.80     0  12:00        2.08        8.96      -0.008
  CROSSWAYS_005        STORAGE     334.04   334.04     0  12:00        5.59        5.59       0.032
  CROSSWAYS_006        STORAGE      77.86    77.86     0  12:00        1.29        1.29       0.000
  CWC_PELTIER_001      STORAGE      84.83   505.50     0  12:06        1.51        41.3      -0.000
  GWATCH_002           STORAGE     109.91   109.91     0  12:00        1.85        1.85       0.000
  GWATCH_003           STORAGE     683.55   877.05     0  12:00        11.1        23.7      -0.001
  GWATCH_004           STORAGE      75.95    75.95     0  12:00         1.2        1.25      -0.001
  GWATCH_005           STORAGE     101.44   101.44     0  12:00        1.66        1.66      -0.000
  GWATCH_006           STORAGE     344.95   344.95     0  12:00        5.69        5.69       0.001
  GWATCH_007           STORAGE      28.62    44.14     0  12:00       0.449        1.44       0.000
  GWATCH_008           STORAGE     144.67   144.67     0  12:00        2.61        2.61       0.000
  GWATCH_009           STORAGE      18.88    32.03     0  12:01       0.329       0.994      -0.004
  GWATCH_010           STORAGE      40.20    40.20     0  12:00       0.672       0.676       0.209
  GWATCH_011           STORAGE     850.60   883.77     0  12:00        14.1        26.7       0.001
  GWATCH_012           STORAGE     268.04   279.22     0  12:00        4.56        12.6       0.000
  GWATCH_013           STORAGE      65.51    90.21     0  12:00        1.14        8.69       0.000
  GWATCH_014           STORAGE     381.28   381.28     0  12:00        6.75        6.76       0.010
  GWATCH_015           STORAGE     620.57   620.57     0  12:00        10.7        17.3      -0.011
  GWATCH_016           STORAGE      87.38    87.38     0  12:00        1.57        1.57       0.045
  GWATCH_018           STORAGE      70.51    70.51     0  12:00        1.27        1.52       0.049
  GWATCH_019           STORAGE     156.65   192.78     0  12:00        2.72        7.76      -0.007
  GWATCH_020           STORAGE      90.10    90.10     0  12:00        1.56        1.75       0.159
  GWATCH_021           STORAGE      59.38    59.38     0  12:00       0.977        1.66      -0.000
  GWATCH_022           STORAGE      46.90    46.90     0  12:00        0.81        0.81       0.001
  GWATCH_023           STORAGE      37.13    37.13     0  12:00       0.617       0.617      -0.000
  GWATCH_024           STORAGE     534.90   534.90     0  12:00        9.67        10.6      -0.003
  GWATCH_025           STORAGE     793.35   951.88     0  12:00        13.3        77.8      -0.001
  GWATCH_026           STORAGE    1660.40  1778.71     0  12:00        27.5        53.9       0.010
  GWATCH_027           STORAGE    1091.67  1121.14     0  12:00        17.8        21.1       0.251
  GWATCH_028           STORAGE      88.42    88.42     0  12:00        1.45        1.45       0.000
  GWATCH_029           STORAGE      88.01    88.01     0  12:00        1.43        1.43       0.009
  GWATCH_030           STORAGE     147.03   174.32     0  12:00        2.47        3.91      -0.002
  GWATCH_031           STORAGE     275.78   275.78     0  12:00        4.75        4.75       0.000
  GWATCH_032           STORAGE     191.74   191.74     0  12:00        3.15        3.15      -1.764
  GWATCH_033           STORAGE      88.10    88.10     0  12:00        1.47        1.47      -0.000
  HOWARD_002           STORAGE     241.28   241.28     0  12:00        4.22        4.22       0.000
  HOWARD_003           STORAGE     115.31   127.84     0  12:00           2        2.25      -0.014
  HOWARD_004           STORAGE      14.72    14.72     0  12:00       0.248       0.248       0.175
  HOWARD_005           STORAGE     257.32   257.32     0  12:00        4.29        5.31      -0.000
  HOWARD_006           STORAGE      56.14    63.56     0  12:00        0.96        1.01       0.003
  HOWARD_007           STORAGE    1507.90  1568.47     0  12:00        24.9        35.9      -0.001
  HOWARD_008           STORAGE     274.24   274.24     0  12:00        4.51        4.51       0.013
  HOWARD_009           STORAGE     399.20   399.20     0  12:00        6.47        6.47       0.000
  MUD_002              STORAGE     616.92   616.92     0  12:00        10.5        10.5      -0.000
  MUD_003              STORAGE     833.11   833.11     0  12:00        13.8        13.8       0.000
  MUD_004              STORAGE     338.02   338.02     0  12:00        5.71        5.71       0.000
  MUD_005              STORAGE     917.22   949.87     0  12:00        14.9        22.3      -0.004
  MUD_006              STORAGE     439.52   439.52     0  12:00        7.33        7.33       0.022
  PELTIER_002          STORAGE    1111.91  1111.91     0  12:00        19.8        19.8      -0.000
  PELTIER_003          STORAGE     113.35   113.35     0  12:00        1.95        1.95       0.000
  PELTIER_006          STORAGE     673.96   673.96     0  12:00          11          11      -0.000
  PELTIER_009          STORAGE     376.93   376.93     0  12:00        6.73        6.73       0.000
  RICE_LAKE_002        STORAGE     254.55   284.88     0  12:00        4.39        10.7      -0.003
  RICE_LAKE_003        STORAGE     364.96   364.96     0  12:00         6.3        6.32       0.003
  RICE_LAKE_004        STORAGE     256.09   266.08     0  12:00        4.63        6.04       0.133
  RICE_LAKE_005        STORAGE     102.41   102.41     0  12:00         1.8         1.8       0.031
  RICE_LAKE_006        STORAGE      76.33    76.33     0  12:00        1.29        1.31       0.000
  RICE_LAKE_007        STORAGE      25.66    25.66     0  12:00       0.433       0.439       0.000
  RICE_LAKE_009        STORAGE      24.31    24.31     0  12:00       0.428       0.433       0.000
  RICE_LAKE_010        STORAGE      44.89    58.94     0  12:00       0.766        3.03       0.004
  RICE_LAKE_011        STORAGE     136.60   136.60     0  12:00        2.27        2.27      -0.013
  RICE_LAKE_012        STORAGE     128.33   154.89     0  12:00        2.31        8.09      -0.012
  RICE_LAKE_013        STORAGE     114.75   120.69     0  12:00        2.08        5.78       0.004
  RICE_LAKE_014        STORAGE      20.58    20.58     0  12:00       0.358       0.358      -0.002
  RICE_LAKE_015        STORAGE     197.60   197.60     0  12:00        3.69        3.71       0.001
  RICE_LAKE_016        STORAGE     340.41   384.97     0  12:00        6.15        33.8       0.000
  RICE_LAKE_017        STORAGE     208.78   208.78     0  12:00        3.81        3.81      -0.000
  RICE_LAKE_018        STORAGE      27.16    69.31     0  12:00       0.498        23.8       0.004
  RICE_LAKE_019        STORAGE      93.49   104.79     0  12:00        1.65        3.78      -0.001
  RICE_LAKE_020        STORAGE     123.21   123.21     0  12:00        2.13         2.2       0.000
  RICE_LAKE_021        STORAGE     377.67   400.05     0  12:00        6.97        19.8      -0.080
  RICE_LAKE_022        STORAGE      79.39    79.45     0  12:00        1.48        2.32      -0.015
  RICE_LAKE_023        STORAGE     194.25   194.25     0  12:00        3.54         4.8       0.009
  RICE_LAKE_024        STORAGE      79.29    79.29     0  12:00        1.44        1.73       0.002
  RICE_LAKE_025        STORAGE      65.84    67.15     0  12:00        1.19        2.21       0.001
  RICE_LAKE_026        STORAGE     313.66   313.66     0  12:00        5.56        5.79       0.013
  RICE_LAKE_031        STORAGE    2374.77  2632.30     0  12:00        41.7         104       0.097
  RICE_LAKE_033        STORAGE     165.65   165.65     0  12:00        2.92        2.92       0.001
  RICE_LAKE_036        STORAGE    2242.02  2242.02     0  12:00        39.4        39.4       0.000
  RICE_LAKE_038        STORAGE     118.94   118.94     0  12:00           2        2.55      -0.146
  RICE_LAKE_039        STORAGE     223.83   223.83     0  12:00        4.06        4.06      -0.259
  RONDEAU_003          STORAGE     181.60   181.60     0  12:00         3.2         3.2       0.000
  RONDEAU_004          STORAGE      53.40    70.18     0  12:00       0.875        61.1       0.000
  RONDEAU_005          STORAGE     187.78   187.78     0  12:00        2.98        3.04      -0.001
  RONDEAU_006          STORAGE      40.67   198.84     0  12:01       0.637          66       0.007
  RONDEAU_007          STORAGE      60.68    67.38     0  12:00       0.982        2.44       0.001
  RONDEAU_008          STORAGE     589.42   589.42     0  12:00        10.4        13.3      -0.000
  RONDEAU_009          STORAGE     187.97   222.04     0  12:00        2.99        28.4      -0.006
  RONDEAU_010          STORAGE      52.21    63.97     0  12:00       0.831        19.4       0.001
  RONDEAU_011          STORAGE    1301.08  1321.51     0  12:00        22.4        23.6       0.012
  RONDEAU_012          STORAGE     497.07   540.23     0  12:00        8.09        25.4      -0.002
  RONDEAU_013          STORAGE      75.71    75.71     0  12:00        1.21        1.21       0.056
  RONDEAU_014          STORAGE     979.03   979.03     0  12:00        16.1        16.1       0.000
  ST_URC_MT_008        STORAGE     224.80   224.80     0  12:00        3.72        3.72       0.004
  S_PELTIER_002        STORAGE     976.38  1035.49     0  12:00        16.4        39.8       0.000
  S_PELTIER_003        STORAGE     132.30   150.11     0  12:00        2.36        14.1      -0.000
  S_PELTIER_004        STORAGE     175.35   185.92     0  12:00        3.13        11.8      -0.004
  S_PELTIER_005        STORAGE      40.68    41.69     0  12:00       0.736       0.826      -0.003
  S_PELTIER_006        STORAGE     174.20   174.20     0  12:00        3.14        3.96      -0.002
  S_PELTIER_007        STORAGE     466.85   466.85     0  12:00        8.63        8.63      -0.003
  S_PELTIER_008        STORAGE     580.73   580.73     0  12:00        9.31        9.31       0.000
  S_URC_MT_002         STORAGE     519.28   519.28     0  12:00        8.82        8.82       0.001
  S_URC_MT_007         STORAGE     916.41   916.41     0  12:00        15.8        15.8       0.000
  S_URC_MT_06          STORAGE    1416.82  1484.99     0  12:00        24.2        43.7      -0.000
  
  
  **********************
  Node Surcharge Summary
  **********************
  
  Surcharging occurs when water rises above the top of the highest conduit.
  ---------------------------------------------------------------------
                                               Max. Height   Min. Depth
                                   Hours       Above Crown    Below Rim
  Node                 Type      Surcharged           Feet         Feet
  ---------------------------------------------------------------------
  RICE_LAKE_035        JUNCTION        1.84          4.852        0.000
  RICE_LAKE_037        JUNCTION        3.21          5.120        0.000
  
  
  *********************
  Node Flooding Summary
  *********************
  
  Flooding refers to all water that overflows a node, whether it ponds or not.
  --------------------------------------------------------------------------
                                                             Total   Maximum
                                 Maximum   Time of Max       Flood    Ponded
                        Hours       Rate    Occurrence      Volume     Depth
  Node                 Flooded       CFS   days hr:min    10^6 gal      Feet
  --------------------------------------------------------------------------
  RICE_LAKE_035           1.84    195.46      0  12:00       1.152     1.852
  RICE_LAKE_037           3.21    229.70      0  12:00       1.475     1.620
  
  
  **********************
  Storage Volume Summary
  **********************
  
  ------------------------------------------------------------------------------------------------
                         Average    Avg   Evap  Exfil     Maximum    Max    Time of Max    Maximum
                          Volume   Pcnt   Pcnt   Pcnt      Volume   Pcnt     Occurrence    Outflow
  Storage Unit          1000 ftł   Full   Loss   Loss    1000 ftł   Full    days hr:min        CFS
  ------------------------------------------------------------------------------------------------
  BALDWIN_002              0.049    0.0    0.0    0.0       5.135    0.0       0  12:04      38.51
  BALDWIN_003              0.599    0.0    0.0    0.0      13.381    0.1       0  12:36       0.87
  BALDWIN_004             61.422    0.0    0.0    0.0     224.477    0.1       0  12:34      16.27
  BALDWIN_005              6.972    0.0    0.0    0.0     247.127    0.2       0  12:26      39.96
  BALDWIN_006              0.117    0.0    0.0    0.0       4.124    0.0       0  12:34      11.71
  BALDWIN_007            107.049    0.3    0.0    0.0     156.196    0.5       0  12:10      12.04
  BALDWIN_008              4.033    0.0    0.0    0.0     100.782    0.2       0  13:02      15.21
  BALDWIN_009             23.861    0.1    0.0    0.0     120.677    0.3       0  12:21      10.92
  BALDWIN_011              4.995    0.0    0.0    0.0     211.581    0.1       0  12:27      33.20
  BALDWIN_013              0.104    0.0    0.0    0.0      14.368    0.0       0  12:06      34.96
  BALDWIN_014              3.520    0.0    0.0    0.0      39.202    0.2       0  12:10       9.11
  BALDWIN_019             24.229    0.0    0.0    0.0     299.846    0.5       0  14:38      30.94
  CENTERVILLE_002          1.539    0.0    0.0    0.0     109.831    0.2       0  12:10      25.68
  CENTERVILLE_003          1.947    0.0    0.0    0.0     121.229    0.2       0  12:10      27.58
  CENTERVILLE_005          5.749    0.0    0.0    0.0     185.474    0.2       0  12:33      17.04
  CENTERVILLE_006         60.377    0.1    0.0    0.0     810.507    0.8       0  15:23      65.29
  CENTERVILLE_007          0.479    0.0    0.0    0.0      18.348    0.0       0  12:01     279.16
  CENTERVILLE_008          1.007    0.0    0.0    0.0      67.550    0.1       0  12:09      48.44
  CENTERVILLE_009         20.602    0.1    0.0    0.0     152.725    0.4       0  18:31       8.73
  CENTERVILLE_010         23.130    0.0    0.0    0.0     208.671    0.4       0  17:57       8.82
  CENTERVILLE_011          7.810    0.0    0.0    0.0     142.320    0.2       0  12:37      10.41
  CENTERVILLE_012          0.607    0.0    0.0    0.0      18.237    0.1       0  12:10       6.24
  CENTERVILLE_013          6.868    0.0    0.0    0.0     319.987    0.2       0  12:14      64.51
  CENTERVILLE_014         12.772    0.0    0.0    0.0     204.964    0.3       0  13:37       8.52
  CENTERVILLE_015          8.797    0.0    0.0    0.0     167.751    0.3       0  13:56      14.28
  CENTERVILLE_017          3.082    0.0    0.0    0.0      87.790    0.2       0  12:20      14.83
  CLEAR_002               49.749    0.0    0.0    0.0     932.153    0.2       0  12:57      49.34
  CLEAR_003               45.689    0.0    0.0    0.0     931.630    0.2       0  12:54      53.07
  CLEAR_004                4.890    0.0    0.0    0.0     246.180    0.1       0  12:12      40.56
  CLEAR_005                9.608    0.0    0.0    0.0     169.256    0.1       0  12:26      41.39
  CLEAR_006               22.158    0.0    0.0    0.0     281.735    0.2       0  15:14      29.47
  CLEAR_007               46.225    0.0    0.0    0.0     580.030    0.2       0  12:46      25.18
  CLEAR_008               36.512    0.0    0.0    0.0     468.685    0.5       0  13:18      48.33
  CLEAR_009               54.358    0.0    0.0    0.0     419.357    0.2       0  12:25      95.19
  CLEAR_010               66.385    0.0    0.0    0.0     914.753    0.2       0  13:41      34.25
  CLEAR_011                5.230    0.0    0.0    0.0     247.021    0.2       0  12:18      34.79
  CLEAR_012                2.950    0.0    0.0    0.0     178.336    0.1       0  12:12      49.24
  CLEAR_013               54.789    0.1    0.0    0.0     208.642    0.2       0  12:34      48.20
  CLEAR_014              146.937    0.4    0.0    0.0     535.047    1.3       1  12:11      45.85
  CLEAR_015              462.102    0.1    0.0    0.0    1884.725    0.5       1  01:14      49.00
  CLEAR_016              144.777    0.0    0.0    0.0     926.699    0.3       0  19:12      47.63
  CLEAR_017              161.698    0.0    0.0    0.0    1268.510    0.2       0  13:58      42.75
  CLEAR_018              814.511    0.1    0.0    0.0    3227.265    0.4       1  00:06      19.64
  CLEAR_019               14.827    0.0    0.0    0.0     355.723    0.2       0  12:33      28.52
  CLEAR_020             1053.200    0.2    0.0    0.0    5400.080    0.8       0  21:11      73.33
  CLEAR_021               63.254    0.0    0.0    0.0    1125.963    0.5       0  14:19      70.63
  CLEAR_022                6.316    0.0    0.0    0.0     357.603    0.2       0  12:14      62.60
  CROSSWAYS_002          238.776    0.0    0.0    0.0    2861.151    0.2       0  13:32     106.67
  CROSSWAYS_003           12.548    0.0    0.0    0.0     104.893    0.1       0  12:20      12.10
  CROSSWAYS_004           21.988    0.0    0.0    0.0     398.883    0.7       0  15:04      32.18
  CROSSWAYS_005            5.885    0.0    0.0    0.0     266.123    0.1       0  12:19      42.49
  CROSSWAYS_006            0.150    0.0    0.0    0.0      32.323    0.0       0  12:08      33.55
  CWC_PELTIER_001          0.175    0.0    0.0    0.0       8.143    0.0       0  12:06     504.06
  GWATCH_002             230.189    0.2    0.0    0.0     247.265    0.2       1  00:11       0.00
  GWATCH_003               3.165    0.0    0.0    0.0     402.691    0.1       0  12:09     424.63
  GWATCH_004               7.134    0.0    0.0    0.0      41.913    0.0       0  12:07      45.96
  GWATCH_005               1.790    0.0    0.0    0.0      80.891    0.1       0  12:10      21.84
  GWATCH_006               0.920    0.0    0.0    0.0     169.664    0.1       0  12:09     109.76
  GWATCH_007               0.270    0.0    0.0    0.0      24.838    0.1       0  12:30      20.32
  GWATCH_008               0.753    0.0    0.0    0.0      91.079    0.1       0  12:10      34.59
  GWATCH_009               0.147    0.0    0.0    0.0      14.877    0.1       0  12:10      19.25
  GWATCH_010               1.582    0.0    0.0    0.0      24.800    0.1       0  12:08      16.88
  GWATCH_011              47.634    0.0    0.0    0.0     877.562    0.2       0  13:03      82.01
  GWATCH_012               9.749    0.0    0.0    0.0     249.550    0.1       0  12:31      37.56
  GWATCH_013              26.304    0.1    0.0    0.0     239.838    0.5       0  16:07      17.94
  GWATCH_014              37.729    0.0    0.0    0.0     443.683    0.2       0  13:13      18.60
  GWATCH_015             293.544    0.1    0.0   99.4    1031.376    0.3       0  18:26      13.91
  GWATCH_016              27.330    0.1    0.0    0.0     107.339    0.3       0  20:03      17.08
  GWATCH_018              52.432    0.2    0.0    0.0     165.913    0.5       0  20:04       8.44
  GWATCH_019             242.329    0.3    0.0    0.0     517.250    0.5       0  20:01      10.11
  GWATCH_020              39.335    0.1    0.0    0.0     123.742    0.3       0  12:45       6.53
  GWATCH_021              56.944    0.1    0.0   99.2     186.563    0.2       0  23:19       1.27
  GWATCH_022               0.459    0.0    0.0    0.0      33.102    0.1       0  12:10       7.22
  GWATCH_023               0.076    0.0    0.0    0.0      15.680    0.1       0  12:08      16.18
  GWATCH_024             162.096    0.1    0.0    0.0    1006.777    0.4       1  00:20      18.87
  GWATCH_025             548.148    0.1    0.0    0.0    3741.883    0.9       0  23:14      88.58
  GWATCH_026             217.946    0.0    0.0    0.0    2194.364    0.2       0  15:19     157.79
  GWATCH_027              39.771    0.0    0.0    0.0     969.278    0.1       0  12:58      91.85
  GWATCH_028               0.410    0.0    0.0    0.0      51.451    0.1       0  12:09      27.20
  GWATCH_029               0.575    0.0    0.0    0.0      47.262    0.0       0  12:09      31.94
  GWATCH_030               2.329    0.0    0.0    0.0      88.101    0.1       0  12:34      32.23
  GWATCH_031             123.809    0.1    0.0   97.2     470.081    0.2       0  18:48       3.85
  GWATCH_032               1.946    0.0    0.0    0.0      86.956    0.0       0  12:10      48.77
  GWATCH_033              47.906    0.1    0.0  100.0     151.586    0.2       0  20:40       1.04
  HOWARD_002               1.372    0.0    0.0    0.0     155.940    0.1       0  12:10      55.09
  HOWARD_003               0.833    0.0    0.0    0.0      85.780    0.1       0  12:10      28.45
  HOWARD_004               0.001    0.0    0.0    0.0       0.615    0.0       0  12:01      13.19
  HOWARD_005               3.711    0.0    0.0    0.0     187.493    0.1       0  12:20      42.37
  HOWARD_006               1.410    0.0    0.0    0.0      60.406    0.1       0  12:20       8.17
  HOWARD_007             159.812    0.0    0.0    0.0    2055.863    0.2       0  14:42      85.97
  HOWARD_008               2.880    0.0    0.0    0.0     196.799    0.1       0  12:10      43.37
  HOWARD_009              17.366    0.0    0.0    0.0     386.879    0.1       0  12:43      27.72
  MUD_002                 21.881    0.0    0.0    0.0     586.288    0.1       0  12:36      46.64
  MUD_003                 43.640    0.0    0.0    0.0     837.064    0.2       0  13:02      44.86
  MUD_004                  5.504    0.0    0.0    0.0     267.085    0.1       0  12:21      41.22
  MUD_005                131.898    0.0    0.0    0.0    1344.545    0.2       0  16:35      43.86
  MUD_006                 16.685    0.0    0.0    0.0     400.043    0.1       0  12:39      33.49
  PELTIER_002            174.182    0.0    0.0    0.0    1516.621    0.3       0  14:36      28.68
  PELTIER_003             16.053    0.0    0.0    0.0     154.279    0.3       0  13:56       3.59
  PELTIER_006              5.495    0.0    0.0    0.0     464.659    0.1       0  12:10     122.36
  PELTIER_009             33.792    0.0    0.0    0.0     476.988    0.3       0  13:02      18.84
  RICE_LAKE_002           33.584    0.0    0.0    0.0     403.272    0.3       0  13:13      31.29
  RICE_LAKE_003           21.432    0.0    0.0    0.0     346.499    0.2       0  13:01      30.84
  RICE_LAKE_004            7.561    0.0    0.0    0.0     213.142    0.2       0  12:26      65.72
  RICE_LAKE_005           52.613    0.1    0.0    0.0     125.574    0.2       0  12:10      23.32
  RICE_LAKE_006          163.461    0.3    0.0    0.0     175.384    0.3       1  00:11       0.00
  RICE_LAKE_007           54.637    0.1    0.0    0.0      58.642    0.1       1  00:11       0.00
  RICE_LAKE_009            0.816    0.0    0.0    0.0      15.743    0.1       0  12:09       7.53
  RICE_LAKE_010            0.297    0.0    0.0    0.0      23.855    0.1       0  12:08      33.09
  RICE_LAKE_011            2.049    0.0    0.0    0.0     114.561    0.1       0  12:18      21.87
  RICE_LAKE_012           44.873    0.1    0.0    0.0     337.080    0.5       0  15:51      12.23
  RICE_LAKE_013            5.751    0.0    0.0    0.0      85.279    0.2       0  12:10      28.10
  RICE_LAKE_014            0.011    0.0    0.0    0.0       2.250    0.0       0  12:02      17.66
  RICE_LAKE_015           25.023    0.0    0.0    0.0     267.762    0.2       0  13:39       7.14
  RICE_LAKE_016           12.254    0.0    0.0    0.0     339.999    0.2       0  12:45      80.37
  RICE_LAKE_017            7.860    0.0    0.0    0.0     201.124    0.2       0  12:10      34.30
  RICE_LAKE_018            6.682    0.1    0.0    0.0      78.119    0.6       0  12:47      35.62
  RICE_LAKE_019            2.820    0.0    0.0    0.0      69.621    0.1       0  12:37      32.83
  RICE_LAKE_020           14.438    0.0    0.0    0.0     135.106    0.2       0  12:21      14.41
  RICE_LAKE_021          216.641    0.1    0.0    0.0     936.027    0.5       0  17:42      19.31
  RICE_LAKE_022           20.146    0.1    0.0    0.0     130.832    0.4       0  18:56       7.00
  RICE_LAKE_023           19.259    0.0    0.0    0.0     233.805    0.2       0  12:31      16.50
  RICE_LAKE_024          124.070    0.3    0.0    0.0     172.261    0.4       0  13:39       2.81
  RICE_LAKE_025          146.091    0.4    0.0    0.0     255.687    0.6       0  14:46       3.08
  RICE_LAKE_026          148.382    0.1    0.0    0.0     685.247    0.5       1  00:06       5.84
  RICE_LAKE_031         1423.447    0.1    0.0    0.0    6451.370    0.6       1  00:10      77.95
[...]
  GWATCH-003              1.00   0.45  0.00  0.00  0.00  0.00  0.00  0.55  0.00  0.00
  GWATCH-006              1.00   0.00  0.00  0.00  0.00  0.00  1.00  0.00  0.00  0.00
  GWATCH-007              1.52   0.00  0.00  0.00  0.00  0.00  0.00  1.00  0.00  0.00
  GWATCH-008              1.52   0.00  0.00  0.00  0.00  0.00  0.00  1.00  0.00  0.00
  GWATCH-009              1.52   0.00  0.00  0.00  0.00  0.00  0.00  1.00  0.00  0.00
  GWATCH-010              2.24   0.00  0.00  0.00  1.00  0.00  0.00  0.00  0.13  0.00
  GWATCH-011              1.00   0.00  0.00  0.00  0.00  0.00  0.99  0.00  0.00  0.00
  GWATCH-012              1.52   0.00  0.00  0.00  0.00  0.00  0.00  1.00  0.00  0.00
  GWATCH-013              1.00   0.01  0.00  0.00  0.00  0.00  0.00  0.99  0.00  0.00
  GWATCH-014              1.54   0.00  0.00  0.00  1.00  0.00  0.00  0.00  0.01  0.00
  GWATCH-016              1.52   0.00  0.00  0.00  1.00  0.00  0.00  0.00  0.00  0.00
  GWATCH-018              1.00   0.00  0.00  0.00  1.00  0.00  0.00  0.00  0.00  0.00
  GWATCH-019              1.24   0.01  0.03  0.00  0.43  0.00  0.52  0.00  0.00  0.00
  GWATCH-020              1.00   0.00  0.00  0.00  0.47  0.00  0.00  0.52  0.23  0.00
  GWATCH-022              1.16   0.00  0.00  0.00  0.00  0.00  0.00  1.00  0.00  0.00
  GWATCH-023              1.52   0.00  0.00  0.00  0.00  0.00  0.00  1.00  0.00  0.00
  GWATCH-024              1.52   0.00  0.00  0.00  0.14  0.00  0.00  0.85  0.00  0.00
  GWATCH-025              2.41   0.00  0.00  0.00  0.00  0.00  0.00  1.00  0.00  0.00
  GWATCH-026              1.00   0.00  0.00  0.00  1.00  0.00  0.00  0.00  0.01  0.00
  GWATCH-027              1.00   0.00  0.00  0.00  0.02  0.00  0.00  0.98  0.00  0.00
  GWATCH-028              1.52   0.00  0.00  0.00  0.00  0.00  0.00  1.00  0.00  0.00
  GWATCH-029              1.52   0.89  0.01  0.00  0.06  0.00  0.00  0.04  0.92  0.00
  GWATCH-030              1.00   0.00  0.00  0.00  0.00  0.00  0.00  1.00  0.00  0.00
  GWATCH-032              1.00   0.00  0.00  0.00  0.07  0.00  0.00  0.93  0.06  0.00
  GWATCH-033              1.00   0.91  0.09  0.00  0.00  0.00  0.00  0.00  0.00  0.00
  HOWARD-002              1.52   0.00  0.00  0.00  0.00  0.00  0.00  1.00  0.00  0.00
  HOWARD-003              1.52   0.00  0.00  0.00  0.00  0.00  0.00  1.00  0.00  0.00
  HOWARD-004              1.52   0.00  0.00  0.00  0.00  0.00  0.00  0.99  0.00  0.00
  HOWARD-005              1.52   0.00  0.00  0.00  0.00  0.00  0.00  1.00  0.00  0.00
  HOWARD-006              1.52   0.00  0.00  0.00  0.02  0.01  0.00  0.96  0.00  0.00
  HOWARD-007              1.00   0.00  0.00  0.00  0.00  0.00  0.00  1.00  0.00  0.00
  HOWARD-008              1.52   0.90  0.00  0.00  0.03  0.00  0.00  0.06  0.90  0.00
  HOWARD-009              1.52   0.00  0.00  0.00  0.00  0.00  0.00  1.00  0.00  0.00
  HOWARD_LAKE_OUTFALL     8.53   0.88  0.00  0.00  0.00  0.00  0.00  0.12  0.00  0.00
  L_PELTIER_002           1.00   0.00  0.00  0.00  0.91  0.09  0.00  0.00  0.00  0.00
  L_PELTIER_003           1.00   0.00  0.85  0.00  0.05  0.10  0.00  0.00  0.93  0.00
  L_PELTIER_004           1.00   0.00  0.00  0.00  0.89  0.10  0.00  0.00  0.00  0.00
  L_PELTIER_005           1.00   0.00  0.00  0.00  1.00  0.00  0.00  0.00  0.87  0.00
  L_PELTIER_006           1.00   0.00  0.00  0.00  0.00  0.00  0.00  1.00  0.00  0.00
  L_PELTIER_008           1.52   0.00  0.00  0.00  0.00  0.00  0.00  1.00  0.00  0.00
  L_URC_MT_002            1.23   0.03  0.01  0.00  0.00  0.00  0.96  0.00  0.00  0.00
  L_URC_MT_006            1.52   0.00  0.00  0.00  0.00  0.00  0.00  1.00  0.00  0.00
  L_URC_MT_007            1.00   0.00  0.00  0.00  0.99  0.00  0.00  0.00  0.00  0.00
  L_URC_MT_008            1.52   0.85  0.05  0.00  0.00  0.00  0.00  0.10  0.90  0.00
  MARSHAN_OUTFALL         5.96   0.89  0.00  0.00  0.00  0.00  0.00  0.11  0.00  0.00
  MUD-002                 1.52   0.00  0.00  0.00  0.00  0.00  0.00  1.00  0.00  0.00
  MUD-003                 1.52   0.00  0.00  0.00  0.00  0.00  0.00  1.00  0.00  0.00
  MUD-004                 1.52   0.00  0.00  0.00  0.00  0.00  0.00  1.00  0.00  0.00
  MUD-005                 1.52   0.00  0.00  0.00  0.00  0.00  0.00  1.00  0.00  0.00
  MUD-006                 1.52   0.88  0.00  0.00  0.07  0.00  0.00  0.05  0.88  0.00
  MUD_LAKE_OUTFALL        8.65   0.86  0.00  0.00  0.00  0.00  0.00  0.14  0.00  0.00
  PELTIER-002             1.52   0.00  0.00  0.00  0.00  0.00  0.00  1.00  0.00  0.00
  PELTIER-003             1.00   0.00  0.00  0.00  0.00  0.00  0.00  1.00  0.00  0.00
  PELTIER-006             1.39   0.00  0.00  0.00  0.00  0.00  0.00  1.00  0.00  0.00
  PELTIER-009             1.00   0.00  0.00  0.00  0.00  0.00  0.00  1.00  0.00  0.00
  PELTIER_LAKE_OUTFALL    7.78   0.69  0.00  0.00  0.00  0.00  0.00  0.31  0.00  0.00
  RICE_LAKE-002           1.00   0.01  0.00  0.00  0.00  0.00  0.00  0.99  0.00  0.00
  RICE_LAKE-003           1.00   0.00  0.00  0.00  1.00  0.00  0.00  0.00  0.00  0.00
  RICE_LAKE-004           1.00   0.00  0.00  0.00  1.00  0.00  0.00  0.00  0.25  0.00
  RICE_LAKE-005           1.00   0.00  0.04  0.00  0.95  0.00  0.00  0.00  0.95  0.00
  RICE_LAKE-007           1.00   0.00  1.00  0.00  0.00  0.00  0.00  0.00  0.00  0.00
  RICE_LAKE-009           1.00   0.00  0.00  0.00  0.00  0.00  0.00  1.00  0.00  0.00
  RICE_LAKE-010           1.52   0.00  0.00  0.00  0.00  0.00  0.00  1.00  0.00  0.00
  RICE_LAKE-011           1.52   0.00  0.00  0.00  0.00  0.00  0.00  0.99  0.00  0.00
  RICE_LAKE-012           1.00   0.00  0.00  0.00  0.00  0.00  0.00  1.00  0.00  0.00
  RICE_LAKE-013           1.16   0.00  0.00  0.00  0.10  0.01  0.00  0.89  0.02  0.00
  RICE_LAKE-014           1.00   0.00  0.00  0.00  0.00  0.00  0.00  1.00  0.00  0.00
  RICE_LAKE-015           1.00   0.00  0.00  0.00  0.06  0.00  0.00  0.94  0.00  0.00
  RICE_LAKE-016           1.93   0.00  0.00  0.00  0.00  0.00  0.00  1.00  0.00  0.00
  RICE_LAKE-017           1.00   0.00  0.00  0.00  1.00  0.00  0.00  0.00  0.00  0.00
  RICE_LAKE-018           4.82   0.00  0.00  0.00  0.03  0.00  0.00  0.97  0.00  0.00
  RICE_LAKE-019           1.00   0.00  0.00  0.00  1.00  0.00  0.00  0.00  0.00  0.00
  RICE_LAKE-020           1.00   0.00  0.00  0.00  0.00  0.00  0.00  1.00  0.00  0.00
  RICE_LAKE-021           1.00   0.00  0.00  0.00  0.03  0.00  0.00  0.97  0.00  0.00
  RICE_LAKE-022           1.00   0.00  0.00  0.00  0.34  0.02  0.00  0.64  0.22  0.00
  RICE_LAKE-023           1.00   0.00  0.00  0.00  0.00  0.00  0.00  1.00  0.00  0.00
  RICE_LAKE-024           1.00   0.00  0.05  0.00  0.95  0.00  0.00  0.00  0.93  0.00
  RICE_LAKE-025           1.00   0.00  0.00  0.00  1.00  0.00  0.00  0.00  0.94  0.00
  RICE_LAKE-026           1.00   0.00  0.00  0.00  0.39  0.00  0.00  0.61  0.15  0.00
  RICE_LAKE-031           1.00   0.00  0.00  0.00  0.00  0.00  0.00  1.00  0.00  0.00
  RICE_LAKE-032           1.00   0.00  0.00  0.00  1.00  0.00  0.00  0.00  0.83  0.00
  RICE_LAKE-033           1.00   0.00  0.85  0.00  0.14  0.00  0.00  0.00  0.92  0.00
  RICE_LAKE-035           1.00   0.78  0.00  0.00  0.17  0.00  0.00  0.05  0.94  0.00
  RICE_LAKE-036           1.52   0.00  0.00  0.00  0.00  0.00  0.00  1.00  0.00  0.00
  RICE_LAKE-037           1.00   0.00  0.00  0.00  0.16  0.00  0.00  0.83  0.16  0.00
  RICE_LAKE-038           1.00   0.00  0.00  0.00  1.00  0.00  0.00  0.00  0.70  0.00
  RICE_LAKE-039           1.00   0.78  0.02  0.00  0.20  0.00  0.00  0.00  0.82  0.00
  RICE_LAKE_OUTFALL       6.65   0.00  0.00  0.00  0.00  0.00  0.00  1.00  0.00  0.00
  RONDEAU-003             1.06   0.00  0.00  0.00  0.00  0.00  0.00  1.00  0.00  0.00
  RONDEAU-004             1.41   0.00  0.00  0.00  0.00  0.00  0.99  0.00  0.00  0.00
  RONDEAU-005             1.00   0.00  0.00  0.00  1.00  0.00  0.00  0.00  0.00  0.00
  RONDEAU-006             1.52   0.00  0.00  0.00  0.00  0.00  0.00  0.99  0.00  0.00
  RONDEAU-007             1.00   0.00  0.00  0.00  1.00  0.00  0.00  0.00  0.00  0.00
  RONDEAU-008             1.00   0.00  0.00  0.00  0.99  0.00  0.00  0.00  0.00  0.00
  RONDEAU-009             1.00   0.00  0.00  0.00  1.00  0.00  0.00  0.00  0.00  0.00
  RONDEAU-010             1.00   0.00  0.00  0.00  0.98  0.01  0.00  0.00  0.00  0.00
  RONDEAU-011             2.84   0.00  0.00  0.00  0.99  0.00  0.00  0.00  0.04  0.00
  RONDEAU-012             1.00   0.00  0.00  0.00  0.99  0.00  0.00  0.00  0.00  0.00
  RONDEAU-013             1.52   0.85  0.00  0.00  0.09  0.00  0.00  0.05  0.85  0.00
  RONDEAU-014             1.52   0.00  0.00  0.00  0.00  0.00  0.00  1.00  0.00  0.00
  RONDEAU_LAKE_OUTFALL    7.70   0.00  0.00  0.00  0.00  0.00  0.00  1.00  0.00  0.00
  UPPER_RICE_OUTFALL      9.23   0.00  0.00  0.00  0.00  0.00  0.00  1.00  0.00  0.00
  URC_MT_OF-002           1.00   0.96  0.00  0.00  0.00  0.00  0.00  0.04  0.00  0.00
  
  
  *************************
  Conduit Surcharge Summary
  *************************
  
  ----------------------------------------------------------------------------
                                                           Hours        Hours 
                         --------- Hours Full --------   Above Full   Capacity
  Conduit                Both Ends  Upstream  Dnstream   Normal Flow   Limited
  ----------------------------------------------------------------------------
  BALDWIN-003                 4.87      4.87     14.79      0.01         0.01
  BALDWIN-004                 0.01      5.59      0.01     18.99         0.01
  BALDWIN-005                 1.88      4.67      1.88      3.92         1.88
  BALDWIN-008                 0.01      6.75      0.01      6.17         0.01
  BALDWIN-009                 3.87      4.54      3.87      4.61         3.87
  BALDWIN-011                 0.01      4.26      0.01      3.77         0.01
  BALDWIN-014                 0.01      0.57      0.01      0.36         0.01
  BALDWIN-019                 0.01      7.24      0.01      7.32         0.01
  CENTERVILLE-002             0.01      1.59      0.01      0.30         0.01
  CENTERVILLE-003             0.01      2.67      0.01      2.90         0.01
  CENTERVILLE-005             0.81      5.74      0.81      5.30         0.81
  CENTERVILLE-006             7.86     14.81      7.86      7.86         7.86
  CENTERVILLE-007             0.01      0.01     11.78      0.01         0.01
  CENTERVILLE-008             0.31      0.31      5.00      0.01         0.01
  CENTERVILLE-009             0.61     26.02      0.61     36.70         0.61
  CENTERVILLE-010            17.70     17.70     23.74      0.01         0.01
  CENTERVILLE-011             3.94      3.94     19.68      0.01         0.01
  CENTERVILLE-012             0.43      0.43     21.34      0.01         0.01
  CENTERVILLE-013             0.01      4.47      0.01      8.99         0.01
  CENTERVILLE-014            13.28     13.28     18.33      0.01         7.48
  CENTERVILLE-015             7.82      7.82     16.17      0.01         0.01
  CENTERVILLE-017             4.70      5.49      4.70     15.56         4.70
  CLEAR-002                   9.58     13.42      9.58     11.93         9.58
  CLEAR-003                   9.63     12.14      9.63      9.75         9.63
  CLEAR-004                   1.73      4.21      1.73      3.23         1.73
  CLEAR-005                   4.40     14.58      4.40     11.55         4.40
  CLEAR-006                   2.13     13.49      2.13      9.46         2.13
  CLEAR-007                   0.01      8.25      0.01      3.21         0.01
  CLEAR-008                  14.65     18.81     14.65     16.98        14.65
  CLEAR-009                   0.01      0.01     29.82     13.00         0.01
  CLEAR-010                   9.50     17.48      9.50     14.71         9.50
  CLEAR-011                   0.01      4.61      0.01      3.76         0.01
  CLEAR-012                   2.91      4.85      2.91      2.92         2.91
  CLEAR-013                  52.44     60.08     52.44     57.86        52.44
  CLEAR-014                  50.27     59.75     50.27     56.92        50.27
  CLEAR-015                  55.43     58.74     55.43     54.47        55.43
  CLEAR-016                  27.85     52.12     27.85     35.33        27.85
  CLEAR-017                  15.09     36.75     15.09     29.60        15.09
  CLEAR-018                  18.44     68.80     18.44     96.19        18.44
  CLEAR-019                   0.01      5.42      0.01      3.68         0.01
  CLEAR-020                  53.69     53.69     74.73     33.70        36.26
  CLEAR-021                  11.07     14.79     11.07     13.20        11.07
  CLEAR-022                   3.42      4.60      3.42      3.95         3.42
  CROSSWAYS-003              20.68     20.71     20.68     17.55        18.25
  CROSSWAYS-004               0.01      9.44      0.01      7.73         0.01
  CROSSWAYS-005               4.53      4.82      5.41      3.80         4.08
  CROSSWAYS-006               0.01      0.74      0.01      0.60         0.01
  CWC_PELTIER-007            13.95     17.47     13.95     26.99        13.95
  GWATCH-003                  0.01      0.50      0.01      0.79         0.01
  GWATCH-006                  0.01      0.01      1.20      5.06         0.01
  GWATCH-007                  0.01      0.91      0.01      0.01         0.01
  GWATCH-008                  0.01      1.72      0.01      1.56         0.01
  GWATCH-009                  0.01      0.25      0.01      0.01         0.01
  GWATCH-010                  0.25      0.25    236.15      0.01         0.01
  GWATCH-011                  0.01      0.01      7.95      7.77         0.01
  GWATCH-012                  2.37      8.94      2.37      6.86         2.37
  GWATCH-013                  0.01     19.18      0.01     18.53         0.01
  GWATCH-014                 24.12     24.12    238.46      6.65         0.01
  GWATCH-016                 93.43     93.43    122.37      0.01         0.27
  GWATCH-018                231.47    231.48    231.47     16.33        27.40
  GWATCH-019                 72.10     72.10    102.64      0.01         0.01
  GWATCH-020                 28.63     28.72     60.42      1.00         1.38
  GWATCH-022                  2.27      2.78      2.27      2.75         2.27
  GWATCH-024                 31.04     32.98     31.04      0.01         8.24
  GWATCH-025                  0.01     32.74      0.01     20.57         0.01
  GWATCH-026                 15.11     15.11     32.94      0.01         0.01
  GWATCH-027                  0.01      6.83      0.01      9.28         0.01
  GWATCH-028                  0.01      0.92      0.01      0.54         0.01
  GWATCH-029                  1.13      1.25      2.32      0.56         0.75
  HOWARD-002                  1.66      1.97      1.66      1.90         1.66
  HOWARD-003                  0.01      1.74      0.01      1.31         0.01
  HOWARD-005                  1.87      4.14      1.87      3.82         1.87
  HOWARD-006                  3.60      3.60      3.89      0.01         0.01
  HOWARD-007                  0.01     16.20      0.01     16.16         0.01
  HOWARD-008                  1.92      3.04      1.92      2.92         1.92
  HOWARD-009                  0.01      7.16      0.01      4.77         0.01
  L_PELTIER_002               0.01      0.07      0.01     18.30         0.01
  L_PELTIER_003               3.82      3.82     13.82      0.01         1.97
  L_PELTIER_004               3.82     13.95      3.82     13.57         3.82
  L_PELTIER_005              28.62     28.62     30.90      0.01         0.01
  L_PELTIER_006               0.01     30.90      0.01     30.95         0.01
  L_PELTIER_008               0.01     11.70      0.01      9.41         0.01
  L_URC_MT_002                0.01      0.01     58.73     53.04         0.01
  L_URC_MT_006                0.01     51.03      0.01     42.46         0.01
  L_URC_MT_007               51.03     53.40     51.03     47.97        46.07
  L_URC_MT_008                1.35      2.56      1.35      2.37         1.35
  MUD-002                     6.05      8.30      6.05      7.76         6.05
  MUD-003                     9.91     11.66      9.91     11.28         9.91
  MUD-004                     2.52      4.20      2.52      3.97         2.52
  MUD-005                    16.15     20.10     16.15     19.51        16.15
  MUD-006                    11.13     11.68     13.43      6.24         7.78
  PELTIER-002                 0.01     23.97      0.01     19.07         0.01
  PELTIER-003                 0.01     19.43      0.01     20.41         0.01
  PELTIER-006                 1.82      2.34      1.82      2.02         1.82
  PELTIER-009                 0.01     10.56      0.01     12.01         0.01
  RICE_LAKE-002               0.01      2.29      0.01      1.66         0.01
  RICE_LAKE-003               0.01      0.01      8.44      0.01         0.01
  RICE_LAKE-009               0.01      0.91      0.01      0.80         0.01
  RICE_LAKE-010               0.01      2.44      0.01      1.65         0.01
  RICE_LAKE-011               0.52      1.75      0.52      0.01         0.34
  RICE_LAKE-012               0.01     27.32      0.01     29.92         0.01
  RICE_LAKE-013              12.66     12.66     21.48      0.01         0.01
  RICE_LAKE-015              12.71     16.85     12.71     16.98        12.71
  RICE_LAKE-016               0.01      6.15      0.01      4.03         0.01
  RICE_LAKE-017               6.98      7.10      6.98     17.29         6.98
  RICE_LAKE-018               2.94      3.47      2.94     43.56         2.94
  RICE_LAKE-019               4.70      4.84      4.70     10.78         4.70
  RICE_LAKE-020               0.01      4.23      0.01      4.43         0.01
  RICE_LAKE-021               5.71     42.63      5.71     45.81         5.71
  RICE_LAKE-022              22.72     22.72     48.69      0.01         0.01
  RICE_LAKE-023               0.01      4.69      0.01      6.03         0.01
  RICE_LAKE-024               0.01      0.01     28.78      0.01         0.01
  RICE_LAKE-025               8.77      8.77     10.35      0.01         0.01
  RICE_LAKE-026              40.62     40.62     42.49      4.03        10.16
  RICE_LAKE-031               0.01     52.03      0.01     52.41         0.01
  RICE_LAKE-032               0.01      0.01     42.40      0.01         0.01
  RICE_LAKE-033              15.33     15.91    228.54     15.41        14.93
  RICE_LAKE-035               0.01      1.84      0.01      1.86         0.01
  RICE_LAKE-036              25.24     27.92     25.24     27.10        25.24
  RICE_LAKE-037               0.01      3.21      0.01      3.23         0.01
  RICE_LAKE-038               3.11     14.61      3.91      9.45         0.07
  RICE_LAKE-039               2.93     33.20      2.93     32.06         1.91
  RONDEAU-003                 0.01      5.32      0.01      6.37         0.01
  RONDEAU-004                 0.01      0.01      0.01      0.40         0.01
  RONDEAU-005                 0.01      0.01      0.01      0.31         0.01
  RONDEAU-006                 0.41     68.61      0.41     58.59         0.41
  RONDEAU-007                68.61     68.62     68.61     53.10        44.03
  RONDEAU-008                68.61     69.56     68.61     81.99        46.37
  RONDEAU-009                 0.01      0.01      0.01     28.26         0.01
  RONDEAU-010                68.18     69.99     68.61    133.46        66.33
  RONDEAU-011                69.99     69.99    233.21      0.01         0.01
  RONDEAU-012                68.92     69.29     68.92     37.95        28.09
  RONDEAU-013                 0.01      0.75      0.01      0.01         0.01
  RONDEAU-014                 0.01     19.65      0.01     15.99         0.01
  

  Analysis begun on:  Wed Jun 24 08:05:15 2026
  Analysis ended on:  Wed Jun 24 08:05:47 2026
  Total elapsed time: 00:00:32