
  EPA STORM WATER MANAGEMENT MODEL - VERSION 5.2 (Build 5.2.4)
  ------------------------------------------------------------

  WARNING 04: minimum elevation drop used for Conduit 62833929
  WARNING 08: elevation drop exceeds length for Conduit EXPRESSWAYINF
  WARNING 02: maximum depth increased for Node 61932872
  WARNING 02: maximum depth increased for Node 62047055
  WARNING 02: maximum depth increased for Node 62052259
  WARNING 02: maximum depth increased for Node 62052355
  WARNING 02: maximum depth increased for Node 62076383
  WARNING 02: maximum depth increased for Node 62076387
  WARNING 02: maximum depth increased for Node 62117663
  WARNING 02: maximum depth increased for Node 62718854
  WARNING 02: maximum depth increased for Node 62718858
  WARNING 02: maximum depth increased for Node 62720328
  WARNING 02: maximum depth increased for Node 62834731
  WARNING 02: maximum depth increased for Node 82087525
  WARNING 02: maximum depth increased for Node 84794309
  WARNING 02: maximum depth increased for Node 88275031
  WARNING 02: maximum depth increased for Node 88805029
  WARNING 02: maximum depth increased for Node 94672274
  WARNING 02: maximum depth increased for Node 95292836
  WARNING 02: maximum depth increased for Node D1714
  WARNING 02: maximum depth increased for Node D3067
  WARNING 02: maximum depth increased for Node D3074
  WARNING 02: maximum depth increased for Node D3139C
  WARNING 02: maximum depth increased for Node D578
  WARNING 02: maximum depth increased for Node LUSJV1050
  WARNING 02: maximum depth increased for Node LUSJV1420
  WARNING 02: maximum depth increased for Node LUSJV170
  WARNING 02: maximum depth increased for Node LUSJV2000
  WARNING 02: maximum depth increased for Node LUSJV2190
  WARNING 02: maximum depth increased for Node LUSJV2760
  WARNING 02: maximum depth increased for Node LUSJV280
  WARNING 02: maximum depth increased for Node LUSJV500
  WARNING 02: maximum depth increased for Node LUSJV800
  WARNING 02: maximum depth increased for Node RWRFCHAMBER
  WARNING 02: maximum depth increased for Node SJV_MH203
  WARNING 02: maximum depth increased for Node SJV_MH25
  WARNING 02: maximum depth increased for Node SJV_MH53
  
  ****************
  Analysis Options
  ****************
  Flow Units ............... MGD
  Process Models:
    Rainfall/Runoff ........ NO
    RDII ................... NO
    Snowmelt ............... NO
    Groundwater ............ NO
    Flow Routing ........... YES
    Ponding Allowed ........ NO
    Water Quality .......... NO
  Flow Routing Method ...... DYNWAVE
  Surcharge Method ......... EXTRAN
  Starting Date ............ 01/01/2002 00:00:00
  Ending Date .............. 01/01/2002 12:00:00
  Antecedent Dry Days ...... 5.0
  Report Time Step ......... 00:05:00
  Routing Time Step ........ 300.00 sec
  Variable Time Step ....... YES
  Maximum Trials ........... 8
  Number of Threads ........ 1
  Head Tolerance ........... 0.005000 ft
  
  
  ERROR 141: Outfall SJVRWRF has more than 1 inlet link or an outlet link.
  
  ERROR 145: Drainage system has no acceptable outlet nodes.

  Analysis begun on:  Wed Jun 24 08:05:47 2026
  Analysis ended on:  Wed Jun 24 08:05:47 2026
  Total elapsed time: < 1 sec