
  EPA STORM WATER MANAGEMENT MODEL - VERSION 5.2 (Build 5.2.4)
  ------------------------------------------------------------

  WARNING 04: minimum elevation drop used for Conduit J-963_OUTFALL
  WARNING 04: minimum elevation drop used for Conduit J561_OUTFALL
  WARNING 04: minimum elevation drop used for Conduit J575_OUTFALL
  WARNING 04: minimum elevation drop used for Conduit J920_OUTFALL
  WARNING 04: minimum elevation drop used for Conduit U-1
  WARNING 04: minimum elevation drop used for Conduit U-100
  WARNING 04: minimum elevation drop used for Conduit U-101
  WARNING 04: minimum elevation drop used for Conduit U-102
  WARNING 04: minimum elevation drop used for Conduit U-103
  WARNING 04: minimum elevation drop used for Conduit U-104
  WARNING 04: minimum elevation drop used for Conduit U-105
  WARNING 04: minimum elevation drop used for Conduit U-11
  WARNING 04: minimum elevation drop used for Conduit U-110
  WARNING 04: minimum elevation drop used for Conduit U-112
  WARNING 04: minimum elevation drop used for Conduit U-113
  WARNING 04: minimum elevation drop used for Conduit U-114
  WARNING 04: minimum elevation drop used for Conduit U-118
  WARNING 04: minimum elevation drop used for Conduit U-121
  WARNING 04: minimum elevation drop used for Conduit U-122
  WARNING 04: minimum elevation drop used for Conduit U-125
  WARNING 04: minimum elevation drop used for Conduit U-129
  WARNING 04: minimum elevation drop used for Conduit U-13
  WARNING 04: minimum elevation drop used for Conduit U-131
  WARNING 04: minimum elevation drop used for Conduit U-141
  WARNING 04: minimum elevation drop used for Conduit U-142
  WARNING 04: minimum elevation drop used for Conduit U-147
  WARNING 03: negative offset ignored for Link U-15
  WARNING 04: minimum elevation drop used for Conduit U-150
  WARNING 04: minimum elevation drop used for Conduit U-153
  WARNING 04: minimum elevation drop used for Conduit U-155
  WARNING 04: minimum elevation drop used for Conduit U-156
  WARNING 04: minimum elevation drop used for Conduit U-158
  WARNING 04: minimum elevation drop used for Conduit U-16
  WARNING 04: minimum elevation drop used for Conduit U-160
  WARNING 04: minimum elevation drop used for Conduit U-161
  WARNING 04: minimum elevation drop used for Conduit U-165
  WARNING 04: minimum elevation drop used for Conduit U-167
  WARNING 04: minimum elevation drop used for Conduit U-171
  WARNING 04: minimum elevation drop used for Conduit U-172
  WARNING 04: minimum elevation drop used for Conduit U-176
  WARNING 04: minimum elevation drop used for Conduit U-177
  WARNING 04: minimum elevation drop used for Conduit U-18
  WARNING 04: minimum elevation drop used for Conduit U-181
  WARNING 04: minimum elevation drop used for Conduit U-184
  WARNING 04: minimum elevation drop used for Conduit U-186
  WARNING 04: minimum elevation drop used for Conduit U-191
  WARNING 04: minimum elevation drop used for Conduit U-193
  WARNING 04: minimum elevation drop used for Conduit U-195
  WARNING 04: minimum elevation drop used for Conduit U-196
  WARNING 04: minimum elevation drop used for Conduit U-197
  WARNING 04: minimum elevation drop used for Conduit U-199
  WARNING 04: minimum elevation drop used for Conduit U-20
  WARNING 04: minimum elevation drop used for Conduit U-200
  WARNING 04: minimum elevation drop used for Conduit U-201
  WARNING 04: minimum elevation drop used for Conduit U-202
  WARNING 04: minimum elevation drop used for Conduit U-203
  WARNING 04: minimum elevation drop used for Conduit U-204
  WARNING 04: minimum elevation drop used for Conduit U-206
  WARNING 04: minimum elevation drop used for Conduit U-207
  WARNING 04: minimum elevation drop used for Conduit U-208
  WARNING 04: minimum elevation drop used for Conduit U-211
  WARNING 04: minimum elevation drop used for Conduit U-213
  WARNING 04: minimum elevation drop used for Conduit U-22
  WARNING 04: minimum elevation drop used for Conduit U-220
  WARNING 04: minimum elevation drop used for Conduit U-221
  WARNING 04: minimum elevation drop used for Conduit U-227
  WARNING 04: minimum elevation drop used for Conduit U-228
  WARNING 04: minimum elevation drop used for Conduit U-231
  WARNING 04: minimum elevation drop used for Conduit U-233
  WARNING 04: minimum elevation drop used for Conduit U-237
  WARNING 04: minimum elevation drop used for Conduit U-239
  WARNING 04: minimum elevation drop used for Conduit U-240
  WARNING 04: minimum elevation drop used for Conduit U-242
  WARNING 04: minimum elevation drop used for Conduit U-244
  WARNING 04: minimum elevation drop used for Conduit U-245
  WARNING 04: minimum elevation drop used for Conduit U-249
  WARNING 04: minimum elevation drop used for Conduit U-25
  WARNING 04: minimum elevation drop used for Conduit U-251
  WARNING 04: minimum elevation drop used for Conduit U-253
  WARNING 04: minimum elevation drop used for Conduit U-254
  WARNING 04: minimum elevation drop used for Conduit U-256
  WARNING 04: minimum elevation drop used for Conduit U-259
  WARNING 04: minimum elevation drop used for Conduit U-26
  WARNING 04: minimum elevation drop used for Conduit U-260
  WARNING 04: minimum elevation drop used for Conduit U-261
  WARNING 04: minimum elevation drop used for Conduit U-262
  WARNING 04: minimum elevation drop used for Conduit U-267
  WARNING 04: minimum elevation drop used for Conduit U-270
  WARNING 04: minimum elevation drop used for Conduit U-271
  WARNING 04: minimum elevation drop used for Conduit U-274
  WARNING 04: minimum elevation drop used for Conduit U-277
  WARNING 04: minimum elevation drop used for Conduit U-28
  WARNING 04: minimum elevation drop used for Conduit U-280
  WARNING 04: minimum elevation drop used for Conduit U-286
  WARNING 04: minimum elevation drop used for Conduit U-289
  WARNING 04: minimum elevation drop used for Conduit U-29
  WARNING 04: minimum elevation drop used for Conduit U-290
  WARNING 04: minimum elevation drop used for Conduit U-291
  WARNING 04: minimum elevation drop used for Conduit U-293
  WARNING 04: minimum elevation drop used for Conduit U-294
  WARNING 04: minimum elevation drop used for Conduit U-295
  WARNING 04: minimum elevation drop used for Conduit U-298
  WARNING 04: minimum elevation drop used for Conduit U-299
  WARNING 04: minimum elevation drop used for Conduit U-300
  WARNING 04: minimum elevation drop used for Conduit U-304
  WARNING 04: minimum elevation drop used for Conduit U-308
  WARNING 04: minimum elevation drop used for Conduit U-309
  WARNING 04: minimum elevation drop used for Conduit U-312
  WARNING 04: minimum elevation drop used for Conduit U-315
  WARNING 04: minimum elevation drop used for Conduit U-316
  WARNING 04: minimum elevation drop used for Conduit U-319
  WARNING 04: minimum elevation drop used for Conduit U-322
  WARNING 04: minimum elevation drop used for Conduit U-325
  WARNING 04: minimum elevation drop used for Conduit U-327
  WARNING 04: minimum elevation drop used for Conduit U-328
  WARNING 03: negative offset ignored for Link U-330
  WARNING 03: negative offset ignored for Link U-332
  WARNING 04: minimum elevation drop used for Conduit U-335
  WARNING 04: minimum elevation drop used for Conduit U-34
  WARNING 04: minimum elevation drop used for Conduit U-341
  WARNING 04: minimum elevation drop used for Conduit U-344
  WARNING 04: minimum elevation drop used for Conduit U-346
  WARNING 04: minimum elevation drop used for Conduit U-347
  WARNING 04: minimum elevation drop used for Conduit U-348
  WARNING 04: minimum elevation drop used for Conduit U-35
  WARNING 04: minimum elevation drop used for Conduit U-351
  WARNING 04: minimum elevation drop used for Conduit U-352
  WARNING 04: minimum elevation drop used for Conduit U-353
  WARNING 04: minimum elevation drop used for Conduit U-354
  WARNING 04: minimum elevation drop used for Conduit U-357
  WARNING 04: minimum elevation drop used for Conduit U-358
  WARNING 04: minimum elevation drop used for Conduit U-364
  WARNING 04: minimum elevation drop used for Conduit U-366
  WARNING 04: minimum elevation drop used for Conduit U-37
  WARNING 04: minimum elevation drop used for Conduit U-372
  WARNING 04: minimum elevation drop used for Conduit U-373
  WARNING 04: minimum elevation drop used for Conduit U-379
  WARNING 04: minimum elevation drop used for Conduit U-38
  WARNING 04: minimum elevation drop used for Conduit U-382
  WARNING 04: minimum elevation drop used for Conduit U-385
  WARNING 04: minimum elevation drop used for Conduit U-386
  WARNING 04: minimum elevation drop used for Conduit U-388
  WARNING 04: minimum elevation drop used for Conduit U-390
  WARNING 03: negative offset ignored for Link U-391
  WARNING 03: negative offset ignored for Link U-392
  WARNING 03: negative offset ignored for Link U-392
  WARNING 03: negative offset ignored for Link U-394
  WARNING 04: minimum elevation drop used for Conduit U-397
  WARNING 04: minimum elevation drop used for Conduit U-398
  WARNING 04: minimum elevation drop used for Conduit U-399
  WARNING 04: minimum elevation drop used for Conduit U-402
  WARNING 04: minimum elevation drop used for Conduit U-404
  WARNING 04: minimum elevation drop used for Conduit U-406
  WARNING 04: minimum elevation drop used for Conduit U-407
  WARNING 03: negative offset ignored for Link U-408
  WARNING 03: negative offset ignored for Link U-409
  WARNING 04: minimum elevation drop used for Conduit U-411
  WARNING 04: minimum elevation drop used for Conduit U-412
  WARNING 04: minimum elevation drop used for Conduit U-413
  WARNING 04: minimum elevation drop used for Conduit U-414
  WARNING 04: minimum elevation drop used for Conduit U-415
  WARNING 04: minimum elevation drop used for Conduit U-416
  WARNING 04: minimum elevation drop used for Conduit U-417
  WARNING 04: minimum elevation drop used for Conduit U-418
  WARNING 03: negative offset ignored for Link U-419
  WARNING 04: minimum elevation drop used for Conduit U-420
  WARNING 04: minimum elevation drop used for Conduit U-421
  WARNING 04: minimum elevation drop used for Conduit U-423
  WARNING 04: minimum elevation drop used for Conduit U-428
  WARNING 04: minimum elevation drop used for Conduit U-430
  WARNING 04: minimum elevation drop used for Conduit U-434
  WARNING 04: minimum elevation drop used for Conduit U-437
  WARNING 04: minimum elevation drop used for Conduit U-439
  WARNING 04: minimum elevation drop used for Conduit U-466
  WARNING 04: minimum elevation drop used for Conduit U-48
  WARNING 04: minimum elevation drop used for Conduit U-481
  WARNING 04: minimum elevation drop used for Conduit U-483
  WARNING 04: minimum elevation drop used for Conduit U-496
  WARNING 04: minimum elevation drop used for Conduit U-497
  WARNING 04: minimum elevation drop used for Conduit U-498
  WARNING 04: minimum elevation drop used for Conduit U-50
  WARNING 04: minimum elevation drop used for Conduit U-501
  WARNING 04: minimum elevation drop used for Conduit U-513
  WARNING 04: minimum elevation drop used for Conduit U-514
  WARNING 04: minimum elevation drop used for Conduit U-515
  WARNING 04: minimum elevation drop used for Conduit U-517
  WARNING 04: minimum elevation drop used for Conduit U-518
  WARNING 04: minimum elevation drop used for Conduit U-519
  WARNING 04: minimum elevation drop used for Conduit U-522
  WARNING 04: minimum elevation drop used for Conduit U-523
  WARNING 04: minimum elevation drop used for Conduit U-525
  WARNING 04: minimum elevation drop used for Conduit U-526
  WARNING 04: minimum elevation drop used for Conduit U-527
  WARNING 04: minimum elevation drop used for Conduit U-53
  WARNING 04: minimum elevation drop used for Conduit U-531
  WARNING 04: minimum elevation drop used for Conduit U-54
  WARNING 04: minimum elevation drop used for Conduit U-545
  WARNING 04: minimum elevation drop used for Conduit U-55
  WARNING 04: minimum elevation drop used for Conduit U-557
  WARNING 04: minimum elevation drop used for Conduit U-559
  WARNING 04: minimum elevation drop used for Conduit U-56
  WARNING 04: minimum elevation drop used for Conduit U-562
  WARNING 04: minimum elevation drop used for Conduit U-565
  WARNING 04: minimum elevation drop used for Conduit U-568
  WARNING 04: minimum elevation drop used for Conduit U-569
  WARNING 04: minimum elevation drop used for Conduit U-572
  WARNING 04: minimum elevation drop used for Conduit U-580
  WARNING 04: minimum elevation drop used for Conduit U-583
  WARNING 04: minimum elevation drop used for Conduit U-584
  WARNING 04: minimum elevation drop used for Conduit U-587
  WARNING 04: minimum elevation drop used for Conduit U-589
  WARNING 04: minimum elevation drop used for Conduit U-590
  WARNING 04: minimum elevation drop used for Conduit U-591
  WARNING 04: minimum elevation drop used for Conduit U-596
  WARNING 04: minimum elevation drop used for Conduit U-599
  WARNING 04: minimum elevation drop used for Conduit U-60
  WARNING 04: minimum elevation drop used for Conduit U-601
  WARNING 04: minimum elevation drop used for Conduit U-604
  WARNING 04: minimum elevation drop used for Conduit U-608
  WARNING 04: minimum elevation drop used for Conduit U-609
  WARNING 04: minimum elevation drop used for Conduit U-612
  WARNING 03: negative offset ignored for Link U-614
  WARNING 04: minimum elevation drop used for Conduit U-616
  WARNING 04: minimum elevation drop used for Conduit U-618
  WARNING 04: minimum elevation drop used for Conduit U-62
  WARNING 04: minimum elevation drop used for Conduit U-621-NEW
  WARNING 04: minimum elevation drop used for Conduit U-623
  WARNING 04: minimum elevation drop used for Conduit U-624
  WARNING 04: minimum elevation drop used for Conduit U-625
  WARNING 04: minimum elevation drop used for Conduit U-628
  WARNING 04: minimum elevation drop used for Conduit U-629
  WARNING 04: minimum elevation drop used for Conduit U-631
  WARNING 04: minimum elevation drop used for Conduit U-632
  WARNING 03: negative offset ignored for Link U-633
  WARNING 03: negative offset ignored for Link U-633
  WARNING 04: minimum elevation drop used for Conduit U-633
  WARNING 04: minimum elevation drop used for Conduit U-637
  WARNING 04: minimum elevation drop used for Conduit U-64
  WARNING 04: minimum elevation drop used for Conduit U-640
  WARNING 04: minimum elevation drop used for Conduit U-643
  WARNING 04: minimum elevation drop used for Conduit U-646
  WARNING 04: minimum elevation drop used for Conduit U-648
  WARNING 04: minimum elevation drop used for Conduit U-649
  WARNING 04: minimum elevation drop used for Conduit U-651
  WARNING 04: minimum elevation drop used for Conduit U-652
  WARNING 04: minimum elevation drop used for Conduit U-653
  WARNING 04: minimum elevation drop used for Conduit U-656
  WARNING 04: minimum elevation drop used for Conduit U-657
  WARNING 04: minimum elevation drop used for Conduit U-659
  WARNING 04: minimum elevation drop used for Conduit U-66
  WARNING 04: minimum elevation drop used for Conduit U-663
  WARNING 04: minimum elevation drop used for Conduit U-668
  WARNING 04: minimum elevation drop used for Conduit U-671
  WARNING 04: minimum elevation drop used for Conduit U-674
  WARNING 04: minimum elevation drop used for Conduit U-675
  WARNING 04: minimum elevation drop used for Conduit U-678
  WARNING 04: minimum elevation drop used for Conduit U-68
  WARNING 04: minimum elevation drop used for Conduit U-681
  WARNING 04: minimum elevation drop used for Conduit U-682
  WARNING 04: minimum elevation drop used for Conduit U-683
  WARNING 04: minimum elevation drop used for Conduit U-685
  WARNING 04: minimum elevation drop used for Conduit U-686
  WARNING 04: minimum elevation drop used for Conduit U-687
  WARNING 04: minimum elevation drop used for Conduit U-688
  WARNING 04: minimum elevation drop used for Conduit U-690
  WARNING 04: minimum elevation drop used for Conduit U-694
  WARNING 04: minimum elevation drop used for Conduit U-695
  WARNING 04: minimum elevation drop used for Conduit U-696
  WARNING 04: minimum elevation drop used for Conduit U-70
  WARNING 04: minimum elevation drop used for Conduit U-704
  WARNING 04: minimum elevation drop used for Conduit U-706
  WARNING 04: minimum elevation drop used for Conduit U-707
  WARNING 04: minimum elevation drop used for Conduit U-708
  WARNING 04: minimum elevation drop used for Conduit U-71
  WARNING 04: minimum elevation drop used for Conduit U-710
  WARNING 04: minimum elevation drop used for Conduit U-711
  WARNING 04: minimum elevation drop used for Conduit U-717
  WARNING 04: minimum elevation drop used for Conduit U-718
  WARNING 04: minimum elevation drop used for Conduit U-719
  WARNING 04: minimum elevation drop used for Conduit U-720
  WARNING 04: minimum elevation drop used for Conduit U-721
  WARNING 04: minimum elevation drop used for Conduit U-725
  WARNING 04: minimum elevation drop used for Conduit U-727
  WARNING 04: minimum elevation drop used for Conduit U-729
  WARNING 04: minimum elevation drop used for Conduit U-73
  WARNING 04: minimum elevation drop used for Conduit U-731
  WARNING 04: minimum elevation drop used for Conduit U-732
  WARNING 04: minimum elevation drop used for Conduit U-734
  WARNING 04: minimum elevation drop used for Conduit U-736
  WARNING 04: minimum elevation drop used for Conduit U-738
  WARNING 04: minimum elevation drop used for Conduit U-74
  WARNING 04: minimum elevation drop used for Conduit U-740
  WARNING 04: minimum elevation drop used for Conduit U-741
  WARNING 04: minimum elevation drop used for Conduit U-743
  WARNING 04: minimum elevation drop used for Conduit U-745
  WARNING 04: minimum elevation drop used for Conduit U-747
  WARNING 04: minimum elevation drop used for Conduit U-749
  WARNING 04: minimum elevation drop used for Conduit U-75
  WARNING 04: minimum elevation drop used for Conduit U-751
  WARNING 04: minimum elevation drop used for Conduit U-753
  WARNING 04: minimum elevation drop used for Conduit U-755
  WARNING 04: minimum elevation drop used for Conduit U-763
  WARNING 04: minimum elevation drop used for Conduit U-766
  WARNING 04: minimum elevation drop used for Conduit U-769
  WARNING 04: minimum elevation drop used for Conduit U-77
  WARNING 04: minimum elevation drop used for Conduit U-772
  WARNING 04: minimum elevation drop used for Conduit U-775
  WARNING 04: minimum elevation drop used for Conduit U-778
  WARNING 04: minimum elevation drop used for Conduit U-783
  WARNING 04: minimum elevation drop used for Conduit U-786
  WARNING 04: minimum elevation drop used for Conduit U-789
  WARNING 04: minimum elevation drop used for Conduit U-792
  WARNING 04: minimum elevation drop used for Conduit U-795
  WARNING 04: minimum elevation drop used for Conduit U-796
  WARNING 04: minimum elevation drop used for Conduit U-801
  WARNING 04: minimum elevation drop used for Conduit U-804
  WARNING 04: minimum elevation drop used for Conduit U-807
  WARNING 04: minimum elevation drop used for Conduit U-81
  WARNING 04: minimum elevation drop used for Conduit U-810
  WARNING 04: minimum elevation drop used for Conduit U-811
  WARNING 04: minimum elevation drop used for Conduit U-815
  WARNING 04: minimum elevation drop used for Conduit U-816
  WARNING 04: minimum elevation drop used for Conduit U-82
  WARNING 04: minimum elevation drop used for Conduit U-820
  WARNING 04: minimum elevation drop used for Conduit U-823
  WARNING 04: minimum elevation drop used for Conduit U-826
  WARNING 04: minimum elevation drop used for Conduit U-829
  WARNING 04: minimum elevation drop used for Conduit U-83
  WARNING 04: minimum elevation drop used for Conduit U-832
  WARNING 04: minimum elevation drop used for Conduit U-833
  WARNING 04: minimum elevation drop used for Conduit U-834
  WARNING 03: negative offset ignored for Link U-835
  WARNING 03: negative offset ignored for Link U-835
  WARNING 04: minimum elevation drop used for Conduit U-838
  WARNING 04: minimum elevation drop used for Conduit U-839
  WARNING 04: minimum elevation drop used for Conduit U-840
  WARNING 04: minimum elevation drop used for Conduit U-841
  WARNING 04: minimum elevation drop used for Conduit U-842
  WARNING 04: minimum elevation drop used for Conduit U-848
  WARNING 04: minimum elevation drop used for Conduit U-851
  WARNING 04: minimum elevation drop used for Conduit U-852
  WARNING 04: minimum elevation drop used for Conduit U-854
  WARNING 04: minimum elevation drop used for Conduit U-856
  WARNING 04: minimum elevation drop used for Conduit U-858
  WARNING 04: minimum elevation drop used for Conduit U-860
  WARNING 04: minimum elevation drop used for Conduit U-863
  WARNING 03: negative offset ignored for Link U-864
  WARNING 03: negative offset ignored for Link U-864
  WARNING 03: negative offset ignored for Link U-865
  WARNING 04: minimum elevation drop used for Conduit U-866
  WARNING 03: negative offset ignored for Link U-869
  WARNING 04: minimum elevation drop used for Conduit U-872
  WARNING 04: minimum elevation drop used for Conduit U-874
  WARNING 04: minimum elevation drop used for Conduit U-878
  WARNING 04: minimum elevation drop used for Conduit U-879
  WARNING 04: minimum elevation drop used for Conduit U-88
  WARNING 04: minimum elevation drop used for Conduit U-885
  WARNING 04: minimum elevation drop used for Conduit U-90
  WARNING 04: minimum elevation drop used for Conduit U-91
  WARNING 04: minimum elevation drop used for Conduit U-92
  WARNING 04: minimum elevation drop used for Conduit U-96
  WARNING 04: minimum elevation drop used for Conduit U-97
  WARNING 04: minimum elevation drop used for Conduit U-98
  WARNING 04: minimum elevation drop used for Conduit U-99
  WARNING 10: crest elevation raised to downstream invert for regulator Link CDT-19
  WARNING 10: crest elevation raised to downstream invert for regulator Link CDT-21
  WARNING 10: crest elevation raised to downstream invert for regulator Link CDT-23
  WARNING 10: crest elevation raised to downstream invert for regulator Link CDT-25
  WARNING 10: crest elevation raised to downstream invert for regulator Link CDT-27
  WARNING 10: crest elevation raised to downstream invert for regulator Link CDT-29
  WARNING 10: crest elevation raised to downstream invert for regulator Link CDT-31
  WARNING 10: crest elevation raised to downstream invert for regulator Link CDT-33
  WARNING 10: crest elevation raised to downstream invert for regulator Link CDT-35
  WARNING 10: crest elevation raised to downstream invert for regulator Link CDT-37
  WARNING 10: crest elevation raised to downstream invert for regulator Link CDT-39
  WARNING 10: crest elevation raised to downstream invert for regulator Link CDT-41
  WARNING 10: crest elevation raised to downstream invert for regulator Link CDT-43
  WARNING 10: crest elevation raised to downstream invert for regulator Link CDT-45
  WARNING 10: crest elevation raised to downstream invert for regulator Link CDT-49
  WARNING 10: crest elevation raised to downstream invert for regulator Link CDT-51
  WARNING 10: crest elevation raised to downstream invert for regulator Link CDT-53
  WARNING 10: crest elevation raised to downstream invert for regulator Link CDT-55
  WARNING 10: crest elevation raised to downstream invert for regulator Link CDT-57
  WARNING 10: crest elevation raised to downstream invert for regulator Link CDT-59
  WARNING 10: crest elevation raised to downstream invert for regulator Link CDT-61
  WARNING 10: crest elevation raised to downstream invert for regulator Link CDT-63
  WARNING 10: crest elevation raised to downstream invert for regulator Link CDT-65
  WARNING 10: crest elevation raised to downstream invert for regulator Link CDT-67
  WARNING 10: crest elevation raised to downstream invert for regulator Link CDT-69
  WARNING 10: crest elevation raised to downstream invert for regulator Link CDT-71
  WARNING 10: crest elevation raised to downstream invert for regulator Link CDT-73
  WARNING 10: crest elevation raised to downstream invert for regulator Link J33A_OUTFALL
  WARNING 02: maximum depth increased for Node J-118
  WARNING 02: maximum depth increased for Node J-268
  WARNING 02: maximum depth increased for Node J-284
  WARNING 02: maximum depth increased for Node J-444
  WARNING 02: maximum depth increased for Node J-572
  WARNING 02: maximum depth increased for Node J-692
  WARNING 02: maximum depth increased for Node J-884
  
  ****************
  Analysis Options
  ****************
  Flow Units ............... CFS
  Process Models:
    Rainfall/Runoff ........ YES
    RDII ................... NO
    Snowmelt ............... NO
    Groundwater ............ NO
    Flow Routing ........... YES
    Ponding Allowed ........ YES
    Water Quality .......... NO
  Infiltration Method ...... HORTON
  Flow Routing Method ...... DYNWAVE
  Surcharge Method ......... EXTRAN
  Starting Date ............ 01/01/2002 00:00:00
  Ending Date .............. 01/04/2002 06:00:00
  Antecedent Dry Days ...... 5.0
  Report Time Step ......... 00:05:00
  Wet Time Step ............ 00:05:00
  Dry Time Step ............ 01:00:00
  Routing Time Step ........ 10.00 sec
  Variable Time Step ....... YES
  Maximum Trials ........... 8
  Number of Threads ........ 1
  Head Tolerance ........... 0.000100 ft
  
  
  **************************        Volume         Depth
  Runoff Quantity Continuity     acre-feet        inches
  **************************     ---------       -------
  Total Precipitation ......       326.903         9.510
  Evaporation Loss .........         0.000         0.000
  Infiltration Loss ........       179.838         5.232
  Surface Runoff ...........        94.134         2.738
  Final Storage ............        53.106         1.545
  Continuity Error (%) .....        -0.053
  
  
  **************************        Volume        Volume
  Flow Routing Continuity        acre-feet      10^6 gal
  **************************     ---------     ---------
  Dry Weather Inflow .......         0.000         0.000
  Wet Weather Inflow .......        93.993        30.629
  Groundwater Inflow .......         0.000         0.000
  RDII Inflow ..............         0.000         0.000
  External Inflow ..........       296.982        96.776
  External Outflow .........       422.837       137.788
  Flooding Loss ............         0.006         0.002
  Evaporation Loss .........         0.000         0.000
  Exfiltration Loss ........         0.000         0.000
  Initial Stored Volume ....         0.049         0.016
  Final Stored Volume ......         5.435         1.771
  Continuity Error (%) .....        -9.527
  
  
  *************************
  Highest Continuity Errors
  *************************
  Node J-666 (-279.10%)
  Node JCT-32 (-115.20%)
  Node JCT-30 (70.21%)
  Node J-902 (61.46%)
  Node J-174 (45.61%)
  
  
  ***************************
  Time-Step Critical Elements
  ***************************
  Link U-525 (41.62%)
  Link U-720 (7.26%)
  Link U-834 (4.43%)
  Link U-454 (4.28%)
  Link U-517 (2.96%)
  
  
  ********************************
  Highest Flow Instability Indexes
  ********************************
  Link W1-26 (65)
  Link W5-2 (53)
  Link CDT-53 (51)
  Link U-549 (51)
  Link U-533 (48)
  
  
  *********************************
  Most Frequent Nonconverging Nodes
  *********************************
  Node J-123 (100.00%)
  Node J-171 (100.00%)
  Node J-263 (100.00%)
  Node J-279 (100.00%)
  Node J-33A (100.00%)
  
  
  *************************
  Routing Time Step Summary
  *************************
  Minimum Time Step           :     0.24 sec
  Average Time Step           :     3.53 sec
  Maximum Time Step           :    10.00 sec
  % of Time in Steady State   :     0.00
  Average Iterations per Step :     8.00
  % of Steps Not Converging   :   100.00
  Time Step Frequencies       :
     10.000 -  1.585 sec      :    87.15 %
      1.585 -  0.251 sec      :    12.85 %
      0.251 -  0.040 sec      :     0.01 %
      0.040 -  0.006 sec      :     0.00 %
      0.006 -  0.001 sec      :     0.00 %
  
  
  ***************************
  Subcatchment Runoff Summary
  ***************************
  
  ------------------------------------------------------------------------------------------------------------------------------
                            Total      Total      Total      Total     Imperv       Perv      Total       Total     Peak  Runoff
                           Precip      Runon       Evap      Infil     Runoff     Runoff     Runoff      Runoff   Runoff   Coeff
  Subcatchment                 in         in         in         in         in         in         in    10^6 gal      CFS
  ------------------------------------------------------------------------------------------------------------------------------
  SUB-11856                  9.51       0.00       0.00       4.97       3.24       0.22       3.46        0.17     1.64   0.364
  SUB-11868                  9.51       0.00       0.00       3.16       4.12       0.17       4.29        0.29     1.84   0.451
  SUB-11924                  9.51       0.00       0.00       5.71       2.54       0.19       2.73        0.21     2.01   0.287
  SUB-11926                  9.51       0.00       0.00       5.79       1.78       0.10       1.89        0.35     2.56   0.198
  SUB-11930                  9.51       0.00       0.00       5.71       2.58       0.19       2.77        0.15     1.47   0.291
  SUB-11932                  9.51       0.00       0.00       7.38       1.58       0.20       1.78        0.07     1.06   0.187
  SUB-11936                  9.51       0.00       0.00       4.13       3.11       0.16       3.27        0.13     0.91   0.344
  SUB-11944                  9.51       0.00       0.00       5.70       2.63       0.20       2.83        0.28     2.75   0.298
  SUB-11948                  9.51       0.00       0.00       5.72       2.44       0.18       2.62        0.24     2.16   0.275
  SUB-11950                  9.51       0.00       0.00       4.53       3.24       0.19       3.43        0.14     1.11   0.361
  SUB-11954                  9.51       0.00       0.00       5.65       2.92       0.25       3.18        0.13     1.49   0.334
  SUB-11958                  9.51       0.00       0.00       5.75       2.23       0.15       2.38        0.24     2.04   0.250
  SUB-11968                  9.51       0.00       0.00       7.45       1.55       0.21       1.76        0.11     1.69   0.185
  SUB-11970                  9.51       0.00       0.00       5.03       2.91       0.19       3.10        0.16     1.38   0.326
  SUB-11972                  9.51       0.00       0.00       5.70       2.61       0.20       2.81        0.22     2.16   0.295
  SUB-11978                  9.51       0.00       0.00       5.68       2.72       0.22       2.94        0.22     2.22   0.309
  SUB-11984                  9.51       0.00       0.00       5.72       2.43       0.17       2.60        0.16     1.49   0.274
  SUB-11986                  9.51       0.00       0.00       5.50       2.44       0.16       2.60        0.17     1.41   0.274
  SUB-11988                  9.51       0.00       0.00       5.62       2.46       0.17       2.63        0.32     2.81   0.277
  SUB-11990                  9.51       0.00       0.00       5.66       2.81       0.23       3.04        0.16     1.70   0.320
  SUB-11994                  9.51       0.00       0.00       5.64       2.93       0.26       3.19        0.15     1.77   0.335
  SUB-11998                  9.51       0.00       0.00       5.74       2.22       0.15       2.37        0.27     2.29   0.249
  SUB-12004                  9.51       0.00       0.00       5.66       2.87       0.24       3.12        0.14     1.56   0.328
  SUB-12010                  9.51       0.00       0.00       5.66       2.87       0.24       3.12        0.12     1.38   0.328
  SUB-12014                  9.51       0.00       0.00       3.15       4.19       0.18       4.37        0.12     0.77   0.460
  SUB-12016                  9.51       0.00       0.00       5.69       2.68       0.21       2.89        0.21     2.18   0.304
  SUB-12024                  9.51       0.00       0.00       5.66       2.51       0.18       2.69        0.15     1.41   0.283
  SUB-12036                  9.51       0.00       0.00       5.61       2.64       0.19       2.84        0.17     1.67   0.298
  SUB-12044                  9.51       0.00       0.00       3.15       4.19       0.18       4.37        0.27     1.74   0.459
  SUB-12046                  9.51       0.00       0.00       5.71       2.56       0.19       2.75        0.16     1.56   0.289
  SUB-12048                  9.51       0.00       0.00       5.14       3.37       0.27       3.64        0.12     1.33   0.383
  SUB-12052                  9.51       0.00       0.00       5.65       2.83       0.23       3.07        0.26     2.82   0.323
  SUB-12060                  9.51       0.00       0.00       5.72       2.45       0.18       2.62        0.15     1.35   0.276
  SUB-12062                  9.51       0.00       0.00       5.74       2.28       0.15       2.44        0.09     0.80   0.256
  SUB-12068                  9.51       0.00       0.00       5.64       2.78       0.22       3.00        0.11     1.14   0.316
  SUB-12072                  9.51       0.00       0.00       5.77       2.08       0.13       2.21        0.39     3.09   0.232
  SUB-12084                  9.51       0.00       0.00       5.72       2.49       0.18       2.67        0.29     2.71   0.280
  SUB-12086                  9.51       0.00       0.00       5.71       2.58       0.19       2.77        0.33     3.15   0.291
  SUB-12088                  9.51       0.00       0.00       5.72       2.48       0.18       2.66        0.25     2.36   0.280
  SUB-12100                  9.51       0.00       0.00       5.76       2.08       0.13       2.22        0.21     1.69   0.233
  SUB-12110                  9.51       0.00       0.00       5.72       2.47       0.18       2.64        0.11     0.98   0.278
  SUB-12112                  9.51       0.00       0.00       5.75       2.21       0.15       2.36        0.17     1.42   0.248
  SUB-12116                  9.51       0.00       0.00       5.75       2.26       0.15       2.41        0.16     1.33   0.253
  SUB-12122                  9.51       0.00       0.00       5.60       3.13       0.30       3.43        0.02     0.23   0.361
  SUB-12128                  9.51       0.00       0.00       5.73       2.39       0.17       2.55        0.12     1.11   0.268
  SUB-12132                  9.51       0.00       0.00       5.76       2.14       0.14       2.28        0.19     1.56   0.240
  SUB-12136                  9.51       0.00       0.00       5.75       2.24       0.15       2.39        0.16     1.37   0.251
  SUB-12138                  9.51       0.00       0.00       5.74       2.34       0.16       2.50        0.13     1.18   0.263
  SUB-12142                  9.51       0.00       0.00       5.78       1.90       0.12       2.02        0.28     2.12   0.212
  SUB-12144                  9.51       0.00       0.00       5.79       1.83       0.11       1.94        0.31     2.32   0.204
  SUB-12150                  9.51       0.00       0.00       5.70       2.64       0.20       2.85        0.17     1.68   0.299
  SUB-12152                  9.51       0.00       0.00       5.73       2.36       0.16       2.52        0.24     2.14   0.265
  SUB-12154                  9.51       0.00       0.00       5.75       2.22       0.15       2.37        0.38     3.20   0.249
  SUB-12158                  9.51       0.00       0.00       5.69       2.65       0.21       2.86        0.14     1.44   0.300
  SUB-12160                  9.51       0.00       0.00       5.68       2.74       0.22       2.96        0.30     3.13   0.311
  SUB-12162                  9.51       0.00       0.00       5.69       2.70       0.21       2.91        0.22     2.25   0.306
  SUB-12164                  9.51       0.00       0.00       5.70       2.61       0.20       2.81        0.17     1.66   0.295
  SUB-12166                  9.51       0.00       0.00       5.73       2.38       0.17       2.55        0.10     0.93   0.268
  SUB-12168                  9.51       0.00       0.00       5.71       2.53       0.19       2.71        0.15     1.47   0.285
  SUB-12170                  9.51       0.00       0.00       5.56       3.27       0.35       3.62        0.06     0.82   0.381
  SUB-12172                  9.51       0.00       0.00       5.63       2.99       0.27       3.26        0.10     1.18   0.343
  SUB-12174                  9.51       0.00       0.00       5.69       2.67       0.21       2.87        0.20     2.07   0.302
  SUB-12176                  9.51       0.00       0.00       5.69       2.70       0.21       2.91        0.14     1.38   0.306
  SUB-12180                  9.51       0.00       0.00       5.70       2.60       0.20       2.80        0.18     1.80   0.294
  SUB-12182                  9.51       0.00       0.00       5.71       2.57       0.19       2.77        0.09     0.83   0.291
  SUB-12184                  9.51       0.00       0.00       5.66       2.84       0.24       3.07        0.05     0.51   0.323
  SUB-12186                  9.51       0.00       0.00       5.73       2.41       0.17       2.58        0.12     1.07   0.272
  SUB-12188                  9.51       0.00       0.00       5.75       2.18       0.14       2.32        0.18     1.48   0.244
  SUB-12190                  9.51       0.00       0.00       5.74       2.32       0.16       2.48        0.14     1.22   0.261
  SUB-12192                  9.51       0.00       0.00       5.75       2.19       0.14       2.34        0.18     1.46   0.246
  SUB-12194                  9.51       0.00       0.00       5.68       2.72       0.22       2.93        0.11     1.16   0.308
  SUB-12196                  9.51       0.00       0.00       5.74       2.33       0.16       2.49        0.11     0.99   0.262
  SUB-12198                  9.51       0.00       0.00       5.71       2.56       0.19       2.75        0.13     1.30   0.289
  SUB-12200                  9.51       0.00       0.00       5.73       2.42       0.17       2.59        0.12     1.06   0.272
  SUB-12202                  9.51       0.00       0.00       5.75       2.18       0.14       2.32        0.18     1.49   0.244
  SUB-12204                  9.51       0.00       0.00       5.72       2.49       0.18       2.67        0.10     0.95   0.281
  SUB-12206                  9.51       0.00       0.00       5.70       2.19       0.14       2.33        0.18     1.50   0.245
  SUB-12208                  9.51       0.00       0.00       5.50       2.66       0.19       2.84        0.09     0.85   0.299
  SUB-12210                  9.51       0.00       0.00       5.74       2.33       0.16       2.49        0.14     1.20   0.262
  SUB-12212                  9.51       0.00       0.00       5.35       2.61       0.17       2.79        0.12     0.99   0.293
  SUB-12214                  9.51       0.00       0.00       5.62       2.23       0.14       2.37        0.18     1.47   0.250
  SUB-12216                  9.51       0.00       0.00       4.61       3.07       0.18       3.25        0.10     0.79   0.342
  SUB-12218                  9.51       0.00       0.00       4.67       3.21       0.19       3.40        0.08     0.64   0.358
  SUB-12222                  9.51       0.00       0.00       5.73       2.43       0.17       2.60        0.11     1.04   0.273
  SUB-12224                  9.51       0.00       0.00       5.71       2.57       0.19       2.76        0.09     0.84   0.290
  SUB-12226                  9.51       0.00       0.00       5.67       2.78       0.23       3.01        0.14     1.49   0.317
  SUB-12228                  9.51       0.00       0.00       5.68       2.72       0.22       2.94        0.15     1.50   0.309
  SUB-12230                  9.51       0.00       0.00       5.67       2.78       0.23       3.01        0.05     0.57   0.316
  SUB-12232                  9.51       0.00       0.00       5.67       2.78       0.23       3.00        0.05     0.57   0.316
  SUB-12234                  9.51       0.00       0.00       5.71       2.56       0.19       2.76        0.09     0.84   0.290
  SUB-12238                  9.51       0.00       0.00       5.66       2.88       0.24       3.12        0.13     1.46   0.328
  SUB-12240                  9.51       0.00       0.00       5.59       3.14       0.31       3.45        0.10     1.35   0.363
  SUB-12242                  9.51       0.00       0.00       5.74       2.28       0.15       2.43        0.15     1.30   0.256
  SUB-12244                  9.51       0.00       0.00       5.73       2.43       0.17       2.61        0.11     1.04   0.274
  SUB-12246                  9.51       0.00       0.00       5.71       2.57       0.19       2.76        0.09     0.83   0.290
  SUB-12248                  9.51       0.00       0.00       5.71       2.56       0.19       2.75        0.09     0.85   0.289
  SUB-12250                  9.51       0.00       0.00       5.74       2.34       0.16       2.51        0.13     1.18   0.264
  SUB-12252                  9.51       0.00       0.00       5.77       2.04       0.13       2.17        0.35     2.81   0.228
  SUB-12256                  9.51       0.00       0.00       5.70       2.63       0.20       2.84        0.15     1.54   0.298
  SUB-12258                  9.51       0.00       0.00       5.68       2.73       0.22       2.95        0.18     1.82   0.310
  SUB-12260                  9.51       0.00       0.00       5.71       2.57       0.19       2.76        0.16     1.55   0.290
  SUB-12262                  9.51       0.00       0.00       5.67       2.78       0.23       3.01        0.12     1.26   0.316
  SUB-12264                  9.51       0.00       0.00       5.67       2.82       0.23       3.05        0.15     1.65   0.321
  SUB-12266                  9.51       0.00       0.00       5.74       2.35       0.16       2.52        0.13     1.17   0.265
  SUB-12268                  9.51       0.00       0.00       5.72       2.46       0.18       2.64        0.21     1.97   0.278
  SUB-12272                  9.51       0.00       0.00       5.69       2.67       0.21       2.88        0.23     2.28   0.303
  SUB-12274                  9.51       0.00       0.00       5.74       2.30       0.16       2.45        0.14     1.17   0.258
  SUB-12276                  9.51       0.00       0.00       5.75       2.18       0.14       2.32        0.22     1.87   0.244
  SUB-12278                  9.51       0.00       0.00       5.75       2.19       0.14       2.34        0.18     1.50   0.246
  SUB-12280                  9.51       0.00       0.00       5.77       2.06       0.13       2.19        0.23     1.81   0.230
  SUB-12284                  9.51       0.00       0.00       4.93       2.75       0.16       2.91        0.18     1.40   0.306
  SUB-12286                  9.51       0.00       0.00       6.44       1.77       0.13       1.89        0.11     0.97   0.199
  SUB-12288                  9.51       0.00       0.00       7.90       1.18       0.17       1.35        0.15     2.26   0.142
  SUB-12290                  9.51       0.00       0.00       5.72       2.47       0.18       2.65        0.14     1.34   0.278
  SUB-12292                  9.51       0.00       0.00       5.72       2.47       0.18       2.64        0.17     1.60   0.278
  SUB-12294                  9.51       0.00       0.00       5.75       2.26       0.15       2.42        0.18     1.58   0.254
  SUB-12296                  9.51       0.00       0.00       5.70       2.59       0.20       2.79        0.13     1.23   0.293
  SUB-12300                  9.51       0.00       0.00       5.75       2.23       0.15       2.38        0.22     1.90   0.251
  SUB-12302                  9.51       0.00       0.00       5.77       1.99       0.12       2.12        0.22     1.70   0.223
  SUB-12304                  9.51       0.00       0.00       5.37       2.58       0.17       2.75        0.12     1.01   0.289
  SUB-12306                  9.51       0.00       0.00       5.73       2.39       0.17       2.56        0.23     2.05   0.269
  SUB-12308                  9.51       0.00       0.00       5.74       2.34       0.16       2.50        0.36     3.14   0.263
  SUB-12310                  9.51       0.00       0.00       4.08       2.87       0.14       3.01        0.39     2.65   0.316
  SUB-12312                  9.51       0.00       0.00       5.60       3.14       0.31       3.44        0.05     0.68   0.362
  SUB-12314                  9.51       0.00       0.00       4.53       2.77       0.15       2.92        0.28     2.01   0.307
  SUB-12316                  9.51       0.00       0.00       4.18       3.19       0.17       3.36        0.26     1.89   0.353
  SUB-12318                  9.51       0.00       0.00       5.72       2.49       0.18       2.68        0.25     2.35   0.281
  SUB-12320                  9.51       0.00       0.00       5.71       2.57       0.19       2.76        0.16     1.52   0.290
  SUB-12322                  9.51       0.00       0.00       5.76       2.16       0.14       2.30        0.19     1.53   0.242
  SUB-12324                  9.51       0.00       0.00       5.72       2.51       0.18       2.69        0.21     2.03   0.283
  SUB-12326                  9.51       0.00       0.00       5.62       3.06       0.29       3.35        0.06     0.78   0.352
  SUB-12328                  9.51       0.00       0.00       5.72       2.51       0.18       2.69        0.10     0.92   0.283
  SUB-12330                  9.51       0.00       0.00       5.68       2.71       0.21       2.93        0.06     0.65   0.308
  SUB-12332                  9.51       0.00       0.00       5.64       2.97       0.26       3.23        0.07     0.82   0.340
  SUB-12334                  9.51       0.00       0.00       5.72       2.47       0.18       2.65        0.11     0.98   0.278
  SUB-12336                  9.51       0.00       0.00       5.67       2.77       0.22       2.99        0.05     0.58   0.315
  SUB-12340                  9.51       0.00       0.00       5.48       2.39       0.15       2.54        0.15     1.27   0.267
  SUB-12344                  9.51       0.00       0.00       5.73       2.39       0.17       2.56        0.12     1.10   0.269
  SUB-12346                  9.51       0.00       0.00       5.73       2.37       0.17       2.54        0.13     1.13   0.267
  SUB-12348                  9.51       0.00       0.00       5.58       2.31       0.15       2.46        0.16     1.34   0.259
  SUB-12350                  9.51       0.00       0.00       5.59       2.32       0.15       2.48        0.16     1.32   0.260
  SUB-12352                  9.51       0.00       0.00       5.75       2.19       0.14       2.33        0.18     1.47   0.245
  SUB-12354                  9.51       0.00       0.00       5.76       2.12       0.14       2.25        0.20     1.61   0.237
  SUB-12356                  9.51       0.00       0.00       5.55       2.45       0.16       2.61        0.13     1.13   0.274
  SUB-12358                  9.51       0.00       0.00       5.72       2.49       0.18       2.67        0.10     0.95   0.281
  SUB-12362                  9.51       0.00       0.00       5.63       3.01       0.27       3.28        0.03     0.34   0.345
  SUB-12364                  9.51       0.00       0.00       4.69       3.55       0.24       3.78        0.04     0.37   0.398
  SUB-12366                  9.51       0.00       0.00       5.19       3.20       0.24       3.44        0.04     0.42   0.361
  SUB-12368                  9.51       0.00       0.00       1.04       3.60       0.07       3.67        0.14     0.49   0.386
  SUB-12372                  9.51       0.00       0.00       2.94       2.81       0.11       2.91        0.11     0.60   0.306
  SUB-12374                  9.51       0.00       0.00       3.19       3.35       0.14       3.49        0.29     1.79   0.367
  SUB-12376                  9.51       0.00       0.00       3.11       4.98       0.22       5.20        0.22     1.55   0.547
  SUB-12380                  9.51       0.00       0.00       3.15       4.20       0.18       4.38        0.46     2.95   0.460
  SUB-12382                  9.51       0.00       0.00       1.01       4.83       0.08       4.91        0.18     0.61   0.516
  SUB-12386                  9.51       0.00       0.00       1.13       4.00       0.08       4.07        0.15     0.55   0.428
  SUB-12388                  9.51       0.00       0.00       1.13       3.57       0.07       3.65        0.20     0.74   0.383
  SUB-12394                  9.51       0.00       0.00       3.19       3.49       0.14       3.64        0.13     0.79   0.382
  SUB-12396                  9.51       0.00       0.00       3.22       2.68       0.11       2.79        0.27     1.56   0.294
  SUB-12398                  9.51       0.00       0.00       3.18       3.59       0.15       3.74        0.12     0.72   0.394
  SUB-12400                  9.51       0.00       0.00       3.17       3.88       0.16       4.04        0.09     0.55   0.425
  SUB-12402                  9.51       0.00       0.00       3.21       2.83       0.12       2.94        0.24     1.39   0.309
  SUB-12404                  9.51       0.00       0.00       3.20       3.14       0.13       3.27        0.18     1.07   0.344
  SUB-12408                  9.51       0.00       0.00       3.24       2.26       0.09       2.36        0.39     2.20   0.248
  SUB-12410                  9.51       0.00       0.00       3.19       3.32       0.14       3.45        0.15     0.92   0.363
  SUB-12414                  9.51       0.00       0.00       3.21       2.90       0.12       3.02        0.22     1.30   0.318
  SUB-12418                  9.51       0.00       0.00       3.22       2.65       0.11       2.75        0.28     1.61   0.290
  SUB-12420                  9.51       0.00       0.00       3.19       3.39       0.14       3.53        0.14     0.86   0.371
  SUB-12422                  9.51       0.00       0.00       3.20       3.29       0.14       3.42        0.16     0.94   0.360
  SUB-12424                  9.51       0.00       0.00       1.27       3.68       0.08       3.76        0.18     0.70   0.395
  SUB-12428                  9.51       0.00       0.00       1.30       4.22       0.09       4.31        0.12     0.48   0.453
  SUB-12430                  9.51       0.00       0.00       2.96       2.82       0.11       2.93        0.25     1.42   0.308
  SUB-12432                  9.51       0.00       0.00       5.69       2.67       0.21       2.88        0.07     0.70   0.303
  SUB-12434                  9.51       0.00       0.00       3.11       3.13       0.13       3.25        0.19     1.09   0.342
  SUB-12438                  9.51       0.00       0.00       5.74       2.34       0.16       2.50        0.28     2.44   0.263
  SUB-12442                  9.51       0.00       0.00       5.57       3.21       0.33       3.54        0.04     0.58   0.372
  SUB-12444                  9.51       0.00       0.00       1.07       4.42       0.08       4.50        0.15     0.51   0.473
  SUB-12446                  9.51       0.00       0.00       1.39       3.89       0.09       3.97        0.15     0.62   0.418
  SUB-12448                  9.51       0.00       0.00       5.67       2.82       0.23       3.05        0.16     1.72   0.321
  SUB-12450                  9.51       0.00       0.00       5.71       2.57       0.19       2.76        0.09     0.84   0.290
  SUB-12452                  9.51       0.00       0.00       5.72       2.48       0.18       2.66        0.10     0.96   0.280
  SUB-12454                  9.51       0.00       0.00       5.29       2.64       0.17       2.82        0.12     0.98   0.296
  SUB-12456                  9.51       0.00       0.00       5.32       2.80       0.19       2.99        0.09     0.77   0.314
  SUB-12458                  9.51       0.00       0.00       4.67       3.00       0.17       3.18        0.11     0.84   0.334
  SUB-12460                  9.51       0.00       0.00       3.76       2.66       1.09       3.74        0.17     2.45   0.394
  
  
  ******************
  Node Depth Summary
  ******************
  
  ---------------------------------------------------------------------------------
                                 Average  Maximum  Maximum  Time of Max    Reported
                                   Depth    Depth      HGL   Occurrence   Max Depth
  Node                 Type         Feet     Feet     Feet  days hr:min        Feet
  ---------------------------------------------------------------------------------
  J-102                JUNCTION     4.00     4.99     0.43     2  12:15        4.98
  J-104                JUNCTION     4.00     4.97     0.41     2  12:15        4.97
  J-106                JUNCTION     4.01     4.89     0.33     2  12:15        4.89
  J-109                JUNCTION     4.02     4.80     0.24     2  12:15        4.79
  J-11                 JUNCTION     3.52     4.94     0.38     2  12:15        4.93
  J-110                JUNCTION     3.58     4.44     0.32     2  12:15        4.44
  J-113                JUNCTION     4.02     4.62     0.06     2  12:15        4.62
  J-114                JUNCTION     4.03     4.61     0.05     2  12:15        4.60
  J-116                JUNCTION     4.32     4.85     0.02     2  21:00        4.85
  J-118                JUNCTION     4.03     4.56    -0.00     2  12:15        4.55
  J-119                JUNCTION     5.21     8.67     3.00     0  00:00        5.78
  J-12                 JUNCTION     3.53     4.95     0.39     2  12:15        4.95
  J-121                JUNCTION     4.01     4.95     0.39     2  12:15        4.95
  J-126                JUNCTION     3.35     4.61     1.05     2  12:16        4.56
  J-127                JUNCTION     3.12     4.29     0.73     2  12:15        4.24
  J-128                JUNCTION     3.03     4.19     0.63     2  12:15        4.14
  J-129                JUNCTION     3.03     3.72     0.16     2  12:15        3.72
  J-130                JUNCTION     3.04     3.85     0.29     2  12:15        3.85
  J-131                JUNCTION     3.07     3.86     0.30     2  12:15        3.85
  J-132                JUNCTION     3.03     3.90     0.34     2  12:15        3.90
  J-137                JUNCTION     3.02     3.91     0.35     2  12:15        3.91
  J-139                JUNCTION     2.99     6.26     2.70     2  09:41        3.93
  J-140                JUNCTION     2.99     4.11     0.55     2  12:15        4.11
  J-147                JUNCTION     3.00     4.42     0.86     2  12:15        4.42
  J-148                JUNCTION     3.00     4.47     0.91     2  12:15        4.47
  J-149                JUNCTION     3.00     4.48     0.92     2  12:15        4.47
  J-15                 JUNCTION     3.03     4.56     0.50     2  12:15        4.56
  J-152                JUNCTION     3.00     4.51     0.95     2  12:15        4.50
  J-153                JUNCTION     3.00     4.51     0.95     2  12:15        4.51
  J-155                JUNCTION     3.00     4.52     0.96     2  12:15        4.51
  J-156                JUNCTION     3.00     4.52     0.96     2  12:15        4.51
  J-158                JUNCTION     3.00     4.52     0.96     2  12:15        4.52
  J-160                JUNCTION     3.00     4.51     0.95     2  12:15        4.51
  J-161                JUNCTION     3.11     3.86     0.30     2  12:15        3.86
  J-162                JUNCTION     3.15     3.86     0.30     2  12:15        3.86
  J-163                JUNCTION     3.15     3.86     0.30     2  12:15        3.86
  J-164                JUNCTION     3.18     3.87     0.31     2  10:03        3.84
  J-165                JUNCTION     3.21     3.90     0.34     2  10:03        3.88
  J-166                JUNCTION     3.25     3.95     0.39     2  21:00        3.95
  J-167                JUNCTION     3.35     4.82     1.26     0  00:03        4.10
  J-168                JUNCTION     3.35     6.16     2.60     0  00:03        4.10
  J-169                JUNCTION     3.35     6.21     2.65     0  00:03        4.11
  J-170                JUNCTION     3.35     6.41     2.85     0  00:03        4.11
  J-174                JUNCTION     3.00     4.51     0.95     2  12:15        4.51
  J-175                JUNCTION     3.00     6.25     2.69     0  00:19        4.51
  J-176                JUNCTION     3.00     4.45     0.89     2  12:15        4.45
  J-179                JUNCTION     3.50     4.93     0.87     2  12:15        4.92
  J-18                 JUNCTION     2.53     4.08     0.52     2  12:15        4.08
  J-180                JUNCTION     3.00     5.95     2.39     0  00:10        4.02
  J-185                JUNCTION     3.50     4.86     0.80     2  12:15        4.85
  J-188                JUNCTION     3.50     6.32     2.26     0  00:15        5.04
  J-191                JUNCTION     3.03     5.88     2.32     2  12:15        5.88
  J-195                JUNCTION     2.73     4.83     1.27     2  12:15        4.83
  J-198                JUNCTION     2.73     4.83     1.27     2  12:15        4.83
  J-199                JUNCTION     2.73     4.73     1.17     2  12:15        4.73
  J-203                JUNCTION     2.73     4.69     1.13     2  12:15        4.69
  J-204                JUNCTION     2.73     4.70     1.14     2  12:15        4.70
  J-206                JUNCTION     2.73     4.53     0.97     2  12:15        4.52
  J-208                JUNCTION     2.73     4.48     0.92     2  12:15        4.48
  J-209                JUNCTION     2.73     4.60     1.04     2  12:15        4.60
  J-212                JUNCTION     2.73     4.62     1.06     2  12:15        4.62
  J-213                JUNCTION     2.73     4.64     1.08     2  12:15        4.63
  J-217                JUNCTION     6.83     9.10     1.41     2  12:15        9.10
  J-218                JUNCTION     6.28     8.53     1.39     2  12:15        8.53
  J-222                JUNCTION     4.33     6.40     1.23     2  12:17        6.37
  J-223                JUNCTION     4.22     6.28     1.22     2  12:16        6.27
  J-225                JUNCTION     2.73     4.69     1.13     2  12:15        4.69
  J-226                JUNCTION     2.73     4.67     1.11     2  12:15        4.67
  J-232                JUNCTION     2.73     4.51     0.95     2  12:15        4.51
  J-233                JUNCTION     2.73     4.34     0.78     2  12:15        4.34
  J-235                JUNCTION     2.73     4.30     0.74     2  12:15        4.30
  J-238                JUNCTION     3.73     5.21     0.65     2  12:15        5.21
  J-24                 JUNCTION     2.56     4.37     0.81     2  12:15        4.36
  J-242                JUNCTION     2.73     4.23     0.67     2  12:15        4.23
  J-244                JUNCTION     2.73     4.28     0.72     2  12:15        4.28
  J-247                JUNCTION     2.73     4.27     0.71     2  12:15        4.27
  J-248                JUNCTION     2.73     4.15     0.59     2  12:15        4.15
  J-249                JUNCTION     2.73     4.13     0.57     2  12:15        4.13
  J-25                 JUNCTION     2.56     4.36     0.80     2  12:15        4.36
  J-253                JUNCTION     2.74     5.71     2.15     2  12:15        5.71
  J-254                JUNCTION     2.74     5.66     2.10     2  12:15        5.66
  J-256                JUNCTION     2.74     5.63     2.07     2  12:15        5.62
  J-259                JUNCTION     2.74     5.39     1.83     2  12:15        5.39
  J-260                JUNCTION     2.59     5.00     1.44     2  12:15        4.99
  J-261                JUNCTION     2.76     4.14     0.58     2  12:15        4.13
  J-262                JUNCTION     3.33     4.13     0.57     2  12:15        4.12
  J-266                JUNCTION     2.74     4.04     0.48     2  12:15        4.04
  J-267                JUNCTION     3.24     4.53     0.47     2  12:15        4.52
  J-268                JUNCTION     3.73     4.92     0.36     2  12:15        4.91
  J-269                JUNCTION     3.73     4.93     0.37     2  12:15        4.93
  J-27                 JUNCTION     2.58     4.39     0.83     2  12:15        4.39
  J-271                JUNCTION     3.34     6.56     3.06     0  00:00        4.11
  J-275                JUNCTION     3.73     4.89     0.33     2  12:15        4.88
  J-278                JUNCTION     3.17     4.13     0.57     0  00:00        3.78
  J-280                JUNCTION     3.07     3.60     0.04     2  20:59        3.60
  J-281                JUNCTION     2.90     3.75     0.19     2  12:15        3.75
  J-282                JUNCTION     2.84     3.80     0.24     2  12:15        3.79
  J-283                JUNCTION     2.77     3.82     0.26     2  12:15        3.82
  J-284                JUNCTION     2.74     3.84     0.28     2  12:15        3.83
  J-285                JUNCTION     3.73     4.87     0.31     2  12:15        4.87
  J-286                JUNCTION     3.23     4.43     0.37     2  12:15        4.42
  J-288                JUNCTION     2.74     3.84     0.28     2  12:15        3.83
  J-290                JUNCTION     2.73     4.27     0.71     2  12:15        4.27
  J-293                JUNCTION     2.73     4.18     0.62     2  12:15        4.18
  J-295                JUNCTION     2.73     4.17     0.61     2  12:15        4.16
  J-296                JUNCTION     2.73     4.14     0.58     2  12:15        4.14
  J-297                JUNCTION     2.73     4.01     0.45     2  12:15        4.00
  J-30                 JUNCTION     2.59     4.39     0.83     2  12:15        4.38
  J-300                JUNCTION     3.23     4.49     0.43     2  12:15        4.48
  J-301                JUNCTION     3.23     4.47     0.41     2  12:15        4.47
  J-304                JUNCTION     3.23     4.49     0.43     2  12:15        4.49
  J-305                JUNCTION     3.23     4.50     0.44     2  12:15        4.49
  J-31                 JUNCTION     2.60     4.38     0.82     2  12:15        4.38
  J-310                JUNCTION     2.72     4.00     0.44     2  12:15        4.00
  J-312                JUNCTION     2.72     3.98     0.42     2  12:15        3.98
  J-314                JUNCTION     2.72     4.01     0.45     2  12:15        4.00
  J-317                JUNCTION     2.71     3.99     0.43     2  12:15        3.98
  J-321                JUNCTION     2.71     4.02     0.46     2  12:15        4.02
  J-323                JUNCTION     2.71     3.92     0.36     2  12:15        3.92
  J-324                JUNCTION     2.71     3.96     0.40     2  12:15        3.96
  J-327                JUNCTION     2.56     4.36     0.80     2  12:15        4.36
  J-328                JUNCTION     2.56     4.38     0.82     2  12:15        4.38
  J-33                 JUNCTION     2.62     4.35     0.79     2  12:15        4.35
  J-333                JUNCTION     3.03     5.80     2.24     0  00:30        5.80
  J-334                JUNCTION     3.02     5.04     1.48     2  12:15        5.04
  J-335                JUNCTION     3.02     5.16     1.60     2  12:15        5.15
  J-341                JUNCTION     3.03     5.42     1.86     2  12:15        5.42
  J-342                JUNCTION     3.04     5.06     1.50     2  12:15        5.05
  J-343                JUNCTION     3.54     5.59     1.53     2  12:15        5.58
  J-348                JUNCTION     3.04     5.09     1.53     2  12:15        5.08
  J-351                JUNCTION     3.04     5.16     1.60     2  12:15        5.16
  J-354                JUNCTION     3.04     5.40     1.84     2  12:15        5.39
  J-355                JUNCTION     3.04     5.34     1.78     2  12:15        5.34
  J-359                JUNCTION     3.54     5.69     1.63     2  12:15        5.68
  J-36                 JUNCTION     2.62     4.37     0.81     2  12:15        4.37
  J-362                JUNCTION     3.04     4.63     1.07     2  12:15        4.62
  J-363                JUNCTION     3.04     4.44     0.88     2  12:15        4.44
  J-364                JUNCTION     3.04     4.77     1.21     2  09:16        4.29
  J-367                JUNCTION     3.07     4.83     1.27     2  12:15        4.82
  J-368                JUNCTION     3.07     4.81     1.25     2  12:15        4.80
  J-369                JUNCTION     3.08     4.45     0.89     2  12:15        4.45
  J-374                JUNCTION     3.07     4.28     0.72     2  12:15        4.28
  J-375                JUNCTION     3.58     4.85     0.79     2  12:15        4.84
  J-380                JUNCTION     3.57     4.78     0.72     2  12:15        4.77
  J-381                JUNCTION     4.58     5.75     0.69     2  12:15        5.75
  J-384                JUNCTION     4.09     5.23     0.67     2  12:15        5.23
  J-385                JUNCTION     3.09     4.17     0.61     2  12:15        4.16
  J-388                JUNCTION     4.10     5.15     0.59     2  12:15        5.14
  J-389                JUNCTION     3.60     4.68     0.62     2  12:15        4.67
  J-393                JUNCTION     3.60     4.76     0.70     2  12:15        4.76
  J-396                JUNCTION     3.59     4.91     0.85     2  12:15        4.91
  J-399                JUNCTION     3.05     4.74     1.18     2  12:15        4.73
  J-40                 JUNCTION     2.72     5.11     1.55     2  12:15        5.11
  J-402                JUNCTION     3.12     6.07     2.51     0  00:15        4.19
  J-405                JUNCTION     3.12     4.17     0.61     0  00:15        4.09
  J-407                JUNCTION     3.12     4.03     0.47     2  12:15        4.03
  J-409                JUNCTION     3.62     4.51     0.45     2  12:15        4.51
  J-410                JUNCTION     3.62     4.51     0.45     2  12:15        4.50
  J-412                JUNCTION     3.12     4.00     0.44     2  12:15        3.99
  J-414                JUNCTION     3.12     4.04     0.48     2  12:15        4.04
  J-415                JUNCTION     4.72     5.66     0.50     2  12:15        5.66
  J-416                JUNCTION     4.12     5.04     0.48     2  12:15        5.03
  J-417                JUNCTION     4.13     4.99     0.43     2  12:15        4.99
  J-42                 JUNCTION     2.73     5.22     1.66     2  12:18        5.21
  J-421                JUNCTION     3.14     4.09     0.53     2  12:15        4.09
  J-422                JUNCTION     3.14     4.47     0.91     0  00:11        4.12
  J-423                JUNCTION     4.65     5.39     0.33     2  12:15        5.39
  J-424                JUNCTION     3.16     3.99     0.43     2  12:15        3.98
  J-427                JUNCTION     3.16     4.01     0.45     2  12:15        4.01
  J-430                JUNCTION     3.16     4.09     0.53     2  12:15        4.09
  J-431                JUNCTION     5.37     7.35     1.81     0  00:19        6.84
  J-432                JUNCTION     5.21     6.95     1.57     0  00:20        6.66
  J-433                JUNCTION     3.37     4.81     1.28     0  00:20        4.70
  J-434                JUNCTION     3.40     4.76     1.20     0  00:20        4.70
  J-435                JUNCTION     3.40     4.90     1.34     0  00:19        4.63
  J-436                JUNCTION     3.40     4.60     1.04     0  00:19        4.53
  J-437                JUNCTION     3.40     4.54     0.98     0  00:19        4.45
  J-438                JUNCTION     3.40     4.34     0.78     0  00:19        4.21
  J-439                JUNCTION     3.40     4.25     0.69     0  00:19        4.18
  J-440                JUNCTION     4.90     5.66     0.60     2  21:00        5.66
  J-441                JUNCTION     3.39     4.16     0.60     2  21:00        4.16
  J-444                JUNCTION     4.68     5.32     0.26     2  21:00        5.32
  J-445                JUNCTION     4.67     5.31     0.25     2  21:00        5.31
  J-448                JUNCTION     3.34     4.09     0.53     2  21:00        4.08
  J-450                JUNCTION     4.66     5.34     0.28     2  12:15        5.34
  J-454                JUNCTION     3.33     4.08     0.52     2  21:00        4.08
  J-455                JUNCTION     3.33     4.08     0.52     2  21:00        4.08
  J-457                JUNCTION     3.33     4.08     0.52     2  21:00        4.08
  J-459                JUNCTION     3.32     4.08     0.52     2  21:00        4.07
  J-460                JUNCTION     3.32     4.07     0.51     2  21:00        4.07
  J-463                JUNCTION     3.31     4.07     0.51     2  21:01        4.07
  J-466                JUNCTION     3.31     4.06     0.50     2  21:01        4.06
  J-468                JUNCTION     3.46     4.06     0.50     2  21:02        4.06
  J-47                 JUNCTION     3.50     4.46     0.60     2  21:01        4.46
  J-470                JUNCTION     3.28     4.03     0.47     2  21:01        4.03
  J-471                JUNCTION     3.30     4.05     0.49     2  21:01        4.05
  J-473                JUNCTION     3.27     4.02     0.46     2  21:01        4.02
  J-474-NEW            JUNCTION     3.25     4.00     0.44     2  21:02        3.99
  J-478                JUNCTION     3.20     3.96     0.40     2  21:02        3.96
  J-479                JUNCTION     3.21     3.96     0.40     2  21:02        3.96
  J-480                JUNCTION     3.16     3.92     0.36     2  21:02        3.91
  J-481                JUNCTION     3.09     3.84     0.28     2  21:02        3.84
  J-482                JUNCTION     2.98     3.77     0.21     2  21:02        3.77
  J-484                JUNCTION     3.00     3.81     0.08     2  12:15        3.81
  J-485                JUNCTION     2.85     3.67     0.10     2  21:02        3.66
  J-486                JUNCTION     2.88     3.73     0.17     2  21:01        3.73
  J-487                JUNCTION     2.92     3.80     0.24     2  21:02        3.80
  J-489                JUNCTION     2.98     3.90     0.34     2  12:15        3.90
  J-491                JUNCTION     3.01     3.94     0.38     2  12:15        3.94
  J-492                JUNCTION     3.07     4.04     0.48     2  21:01        4.04
  J-493                JUNCTION     3.12     4.13     0.57     2  21:01        4.13
  J-495                JUNCTION     3.12     4.13     0.57     2  21:01        4.13
  J-497                JUNCTION     3.12     4.15     0.59     2  12:15        4.15
  J-498                JUNCTION     3.11     4.24     0.68     2  12:15        4.24
  J-499                JUNCTION     3.11     4.21     0.65     2  12:15        4.21
  J-5                  JUNCTION     3.93     5.38     0.32     2  12:15        5.38
  J-50                 JUNCTION     3.34     4.31     0.60     2  21:01        4.30
  J-500                JUNCTION     3.11     4.20     0.64     2  12:15        4.19
  J-505                JUNCTION     3.11     4.19     0.63     2  12:15        4.19
  J-508                JUNCTION     3.11     4.19     0.63     2  12:15        4.19
  J-51                 JUNCTION     3.61     4.56     0.60     2  21:01        4.56
  J-512                JUNCTION     3.12     4.17     0.61     2  12:15        4.17
  J-518                JUNCTION     3.12     4.16     0.60     2  12:15        4.16
  J-53                 JUNCTION     4.31     6.04     1.28     2  12:23        6.04
  J-534                JUNCTION     3.46     4.54     0.98     2  12:15        4.54
  J-537                JUNCTION     3.46     4.46     0.90     2  12:15        4.46
  J-539                JUNCTION     3.53     4.35     0.79     2  12:15        4.35
  J-54                 JUNCTION     4.31     6.04     1.28     2  12:23        6.04
  J-541                JUNCTION     3.45     4.07     0.51     2  21:02        4.06
  J-544                JUNCTION     3.17     4.15     0.59     2  21:01        4.15
  J-548                JUNCTION     3.34     4.16     0.60     2  21:01        4.16
  J-550                JUNCTION     3.39     4.16     0.60     2  21:00        4.16
  J-553                JUNCTION     3.69     4.46     0.61     2  21:00        4.46
  J-554                JUNCTION     3.88     4.64     0.61     2  21:00        4.64
  J-555                JUNCTION     4.24     5.01     0.61     2  21:00        5.01
  J-557                JUNCTION     7.79     9.91     1.96     0  00:00        8.55
  J-558                JUNCTION     6.83     7.59     0.61     2  21:00        7.59
  J-559                JUNCTION     3.40     4.17     0.61     2  20:59        4.16
  J-560                JUNCTION     3.40     4.17     0.61     2  21:00        4.16
  J-561                JUNCTION     3.84     8.00     4.00     0  00:00        4.60
  J-563                JUNCTION     2.41     3.89     0.33     2  12:15        3.89
  J-565                JUNCTION     3.90     5.35     0.29     2  12:15        5.34
  J-566                JUNCTION     3.87     5.30     0.24     2  12:15        5.27
  J-567                JUNCTION     2.61     5.43     1.43     3  05:00        3.86
  J-568                JUNCTION     7.40     8.85     0.22     2  12:16        8.80
  J-569                JUNCTION     5.04     6.49     0.25     2  12:16        6.44
  J-570                JUNCTION     2.37     3.88     0.32     2  12:15        3.84
  J-571                JUNCTION     3.37     4.37     0.81     2  12:15        4.36
  J-572                JUNCTION     3.68     4.32     0.76     2  12:15        4.32
  J-575                JUNCTION     3.84     4.60     0.60     2  21:00        4.60
  J-576                JUNCTION     3.71     4.97     0.91     0  05:38        4.58
  J-577                JUNCTION     3.36     4.08     0.52     2  21:01        4.08
  J-578                JUNCTION     3.85     4.74     0.68     2  09:03        4.60
  J-58                 JUNCTION     4.31     6.01     1.25     2  12:23        6.01
  J-581                JUNCTION     4.87     5.70     0.64     2  09:03        5.63
  J-585                JUNCTION     3.89     5.20     1.14     0  00:19        4.69
  J-588                JUNCTION     4.39     5.44     0.88     2  09:07        5.18
  J-59                 JUNCTION     4.30     5.96     1.20     2  12:21        5.96
  J-591                JUNCTION     5.89     6.92     0.86     2  08:58        6.67
  J-596                JUNCTION     4.70     5.58     0.71     2  09:08        5.50
  J-598                JUNCTION     3.25     4.26     0.70     2  12:15        4.25
  J-6                  JUNCTION     3.63     5.07     0.32     2  12:15        5.07
  J-60                 JUNCTION     4.30     5.94     1.18     2  12:22        5.94
  J-601                JUNCTION     3.25     4.12     0.56     2  21:00        4.12
  J-602                JUNCTION     3.25     4.12     0.56     2  21:00        4.12
  J-603                JUNCTION     3.40     4.12     0.56     2  21:00        4.11
  J-604                JUNCTION     3.39     4.14     0.58     2  21:00        4.14
  J-606                JUNCTION     3.73     4.62     0.56     2  21:00        4.62
  J-607                JUNCTION     3.73     4.62     0.56     2  21:00        4.62
  J-609                JUNCTION     3.25     4.12     0.56     2  21:00        4.12
  J-61                 JUNCTION     4.30     5.94     1.18     2  12:21        5.93
  J-611                JUNCTION     3.25     4.18     0.62     2  12:15        4.18
  J-613                JUNCTION     3.25     4.13     0.57     2  21:00        4.13
  J-615                JUNCTION     3.25     4.13     0.57     2  21:00        4.12
  J-618                JUNCTION     2.73     5.09     1.53     2  12:15        5.09
  J-623                JUNCTION     2.72     4.98     1.42     2  12:15        4.98
  J-624                JUNCTION     2.72     4.97     1.41     2  12:15        4.97
  J-626                JUNCTION     2.72     4.91     1.35     2  12:15        4.91
  J-629                JUNCTION     2.72     4.96     1.40     2  12:15        4.96
  J-63                 JUNCTION     3.03     4.98     1.42     2  12:15        4.98
  J-632                JUNCTION     2.72     5.07     1.51     2  12:15        5.06
  J-633                JUNCTION     3.21     5.30     1.24     2  12:15        5.29
  J-637                JUNCTION     2.71     4.79     1.23     2  12:15        4.79
  J-64                 JUNCTION     3.03     4.99     1.43     2  12:15        4.98
  J-640                JUNCTION     2.68     4.71     1.15     2  12:15        4.70
  J-647                JUNCTION     2.64     4.50     0.94     2  12:15        4.50
  J-650                JUNCTION     2.72     4.67     1.11     2  12:15        4.67
  J-653                JUNCTION     2.72     4.81     1.25     2  12:15        4.81
  J-654                JUNCTION     2.72     4.88     1.32     2  12:15        4.88
  J-657                JUNCTION     2.72     4.77     1.21     2  12:15        4.77
  J-659                JUNCTION     2.72     4.69     1.13     2  12:15        4.68
  J-663                JUNCTION     3.72     5.60     1.04     1  02:00        5.45
  J-665                JUNCTION     3.77     5.40     0.84     2  12:15        5.40
  J-666                JUNCTION     3.56     5.12     0.56     2  12:15        5.12
  J-67                 JUNCTION     3.04     5.03     1.47     2  12:15        5.02
  J-670                JUNCTION     3.76     5.29     0.73     2  12:15        5.28
  J-672                JUNCTION     4.20     7.56     3.00     0  00:00        4.95
  J-678                JUNCTION     3.61     5.07     0.51     2  12:15        5.07
  J-682                JUNCTION     2.40     5.60     3.04     0  00:05        3.17
  J-684                JUNCTION     2.40     5.43     2.87     0  00:05        3.17
  J-686                JUNCTION     2.40     3.17     0.61     2  21:00        3.16
  J-687                JUNCTION     2.40     3.17     0.61     2  21:00        3.16
  J-691                JUNCTION     2.40     5.85     3.29     0  00:01        3.16
  J-692                JUNCTION     2.40     3.16     0.60     2  21:00        3.16
  J-693                JUNCTION     2.40     3.16     0.60     2  21:00        3.16
  J-697                JUNCTION     3.62     5.65     2.09     2  12:31        4.97
  J-7                  JUNCTION     3.44     4.88     0.32     2  12:15        4.88
  J-700                JUNCTION     3.48     5.29     1.73     1  13:36        4.41
  J-701                JUNCTION     3.33     6.80     3.24     1  16:57        4.09
  J-702                JUNCTION     3.33     6.81     3.25     0  00:49        4.08
  J-705                JUNCTION     3.33     6.17     2.61     0  00:02        4.11
  J-707                JUNCTION     3.33     6.75     3.19     0  00:02        4.12
  J-710                JUNCTION     3.33     6.85     3.29     0  00:02        4.12
  J-712                JUNCTION     2.44     4.26     0.70     2  12:15        4.25
  J-714                JUNCTION     2.45     4.22     0.66     2  12:15        4.21
  J-719                JUNCTION     2.42     4.01     0.45     2  12:15        4.01
  J-72                 JUNCTION     3.02     4.94     1.38     2  12:15        4.94
  J-721                JUNCTION     2.30     3.69     0.13     2  12:15        3.69
  J-725                JUNCTION     2.29     3.69     0.13     2  12:16        3.66
[...]
  U-45                       60.60     60.60     67.15      0.01         0.01
  U-450                       0.01      0.01     34.14      0.01         0.01
  U-451                       0.01      0.01      8.18      0.01         0.01
  U-452                       5.50      5.50      8.18      0.01         0.01
  U-454                       5.50      5.50     19.20      0.01         0.01
  U-457-NEW                   0.01      0.01     18.62      0.01         0.01
  U-459-NEW                  17.46     17.46     18.62      0.01         0.01
  U-461                      16.63     16.63     17.46      0.01         0.01
  U-463                      16.63     16.63     30.22      0.01         0.01
  U-464                       5.20      5.20     23.82      0.01         0.01
  U-466                       1.31      1.31      1.48     54.50         0.01
  U-469                       0.01      0.01     77.72      0.01         0.01
  U-47                       54.28     54.28     60.60      0.01         0.01
  U-48                       75.47     75.47     75.47      0.01         4.93
  U-481                      69.03     69.03     69.03      0.01         0.31
  U-483                      69.56     69.56     69.56     20.32         1.07
  U-486                       0.01      0.01      0.01      0.35         0.01
  U-487                       0.01      0.01      0.01      0.47         0.01
  U-492                      71.78     71.86     71.78     54.06        52.13
  U-495                      44.99     44.99     77.99      0.01         0.01
  U-496                      44.99     45.00     44.99      2.43         0.88
  U-497                      29.37     29.39     29.38      1.84         3.02
  U-498                      29.33     29.37     29.33     33.41        22.27
  U-5                        72.50     72.50     76.73      0.01         0.01
  U-50                       75.47     75.47     75.47     18.22        20.36
  U-500                      66.33     66.33     77.94      0.01         0.01
  U-501                      44.98     45.01     45.00     33.97         0.80
  U-502                      59.58     59.58     66.33      0.01         0.01
  U-503                       0.01      0.01     59.58      0.01         0.01
  U-507                       0.01      0.01      0.01      0.26         0.01
  U-509                       0.01      0.01     69.08      0.01         0.01
  U-513                       3.88      3.88      4.92     58.39         0.01
  U-514                       3.24      3.24      3.88     54.33         0.01
  U-515                       2.65      2.65      3.24     54.51         0.01
  U-517                       2.42      2.42      2.65     41.74         0.01
  U-518                       1.74      1.74      2.42     58.75         0.01
  U-519                       1.48      1.48      1.74     55.98         0.01
  U-522                       0.01      0.01      0.01     18.22         0.01
  U-523                      76.71     76.71     76.71     16.90        12.81
  U-524                      12.58     12.58     77.33      0.01         0.01
  U-525                      10.77     12.04     10.77     77.55        10.76
  U-526                      76.63     76.63     76.71     77.54         0.01
  U-527                      76.63     76.63     76.71     77.54         0.01
  U-53                       75.47     75.47     75.47     19.83        21.36
  U-530                      76.72     76.72     77.72      0.01         0.01
  U-531                      76.71     76.72     76.71     77.69        72.63
  U-533                      77.86     77.86     77.87      0.01         0.01
  U-534                      77.97     78.00     77.97      0.41         0.37
  U-537                      77.83     77.83     77.87      0.01         0.01
  U-538                      77.65     77.65     77.68      0.01         0.01
  U-54                       75.47     75.47     75.47      9.15        11.02
  U-543                      77.66     77.66     77.68      0.01         0.01
  U-545                      72.37     72.37     72.37      4.35         4.32
  U-546                       0.01      0.01     72.36      0.01         0.01
  U-547                       0.01      0.01     77.99      0.01         0.01
  U-548                       0.01      0.01     72.37      0.01         0.01
  U-549                       0.01      0.01     77.63      0.01         0.01
  U-55                       75.47     75.47     75.47      0.64         2.78
  U-550                      77.63     77.63     77.78      0.01         0.01
  U-555                      77.81     77.81     77.87      0.01         0.01
  U-557                      71.89     71.89     71.89     18.23        19.53
  U-559                      71.89     71.89     71.89     10.46        12.36
  U-56                       75.47     75.47     75.47     30.87        35.47
  U-562                      71.89     71.89     71.89     18.61        20.20
  U-565                      71.89     71.89     71.89     13.91        15.57
  U-568                      71.89     71.89     71.89     14.20        16.02
  U-569                      71.86     71.86     71.86      0.53         4.66
  U-570                      71.86     71.86     71.89      0.01         0.01
  U-572                      71.89     71.89     71.89      0.67         6.81
  U-573                       0.01      0.01     71.89      0.01         0.01
  U-574                       3.23      3.23     36.20      0.01         0.01
  U-575                      36.20     36.20     78.00      0.01         0.01
  U-580                      76.80     76.80     76.80     15.46        21.34
  U-583                      76.80     76.80     76.80      9.26        13.41
  U-584                      76.78     76.78     76.79     31.58        36.66
  U-587                      76.79     76.79     76.79     16.28        27.62
  U-589                      71.12     71.19     71.24     22.52        30.24
  U-59                       77.92     77.92     77.93      0.01         0.01
  U-590                      71.11     71.38     71.24     25.11        16.27
  U-591                      76.80     76.80     76.80     77.22        71.64
  U-596                      76.80     76.80     76.81     77.23         5.23
  U-599                      76.81     76.81     76.81     74.72        64.99
  U-60                       77.79     77.79     77.81     54.84         9.76
  U-601                      71.12     71.38     71.27     64.87        18.82
  U-604                      76.83     76.83     76.84      9.59        26.98
  U-608                      76.83     76.84     76.84     12.78        30.49
  U-609                      70.80     70.90     71.13     13.27        28.81
  U-612                      61.97     62.12     62.04      0.52        29.76
  U-614                      62.04     62.04     76.86      0.01         0.01
  U-616                      76.84     76.86     76.85     59.11        23.28
  U-618                      76.78     76.85     76.79     53.62        63.00
  U-62                       77.79     77.79     77.79     40.11         2.91
  U-620                      77.99     78.00     77.99      0.02         0.03
  U-621-NEW                  77.98     77.99     77.98     75.93        60.35
  U-623                      77.87     77.98     77.87     57.28        64.74
  U-624                      76.77     76.79     76.82     77.77        14.63
  U-625                      76.76     76.82     76.81     77.96        64.19
  U-628                      76.79     76.81     76.79     77.94        67.87
  U-629                      76.77     76.79     76.77     77.92        70.13
  U-631                      13.82     13.82     13.86      9.35         0.01
  U-632                      46.89     46.90     46.90      0.45         0.46
  U-633                      46.89     46.91     46.90      3.37         2.85
  U-637                      46.88     46.90     46.91      1.39         1.71
  U-64                       77.67     77.67     77.67      0.68         1.08
  U-640                      66.57     66.67     66.76     13.65        14.09
  U-643                      66.59     66.64     66.67      6.11         8.03
  U-646                      77.96     77.96     77.96      4.32        23.59
  U-648                      77.96     77.96     77.97      0.76        15.51
  U-649                      77.97     77.97     77.98      7.80        44.61
  U-651                      77.98     77.98     77.99     52.32        54.85
  U-652                      77.99     77.99     78.00     77.05         1.01
  U-653                      77.96     77.96     77.98     77.94        76.53
  U-656                      77.96     77.96     77.96     77.91        64.71
  U-657                      77.96     77.96     77.98     48.05        25.60
  U-659                      77.98     77.98     78.00     77.89        36.56
  U-66                       77.66     77.67     77.66     36.76        36.71
  U-663                       0.15      0.15      0.15      9.14         0.05
  U-668                       0.15      0.23      0.15     22.90         0.15
  U-671                       0.23      0.26      0.23     20.70         0.23
  U-674                       0.26      0.26      0.26     18.14         0.25
  U-675                       0.01      0.01      0.01      0.13         0.01
  U-678                       0.01      0.01      0.01      8.53         0.01
  U-68                       77.66     77.66     77.66     37.80        37.92
  U-681                       0.01      0.01      0.01      0.53         0.01
  U-682                       0.01      0.01      0.01      0.28         0.01
  U-684                      76.13     76.13     76.27      0.01         0.01
  U-685                      75.47     75.47     75.47      0.60         2.62
  U-686                      75.47     75.47     75.47     11.21         1.75
  U-687                      75.47     75.47     75.47      0.68         2.95
  U-688                      73.55     73.55     73.55      0.79         3.28
  U-690                      73.55     73.55     73.55      0.81         3.08
  U-694                      75.47     75.47     75.47     26.71        32.41
  U-695                      75.47     75.47     75.47     24.76        29.04
  U-696                      73.55     73.55     73.55      0.18         3.90
  U-70                       77.66     77.66     77.66     21.26        20.49
  U-701                      77.60     77.60     77.83      0.01         0.01
  U-704                      77.81     77.81     77.81     53.26         9.61
  U-706                      77.89     77.89     77.89      0.26         2.31
  U-707                      77.89     77.89     77.90      7.42        10.69
  U-708                      77.81     77.81     77.82     51.06        11.21
  U-71                       77.66     77.66     77.66     27.32        27.28
  U-710                      77.82     77.82     77.82      0.77         4.57
  U-711                      77.82     77.82     77.82     39.60         9.10
  U-717                      77.81     77.81     77.84     54.15         9.13
  U-718                      77.84     77.84     77.85     59.99        10.32
  U-719                      77.85     77.85     77.86     53.95         8.75
  U-720                       4.92      5.18      4.92     38.13         3.79
  U-721                      77.95     77.95     77.97     71.76         7.06
  U-725                      76.72     76.72     76.72     77.62        70.95
  U-727                       0.01      0.01      0.01      9.37         0.01
  U-729                       0.01      0.01      0.01      7.18         0.01
  U-73                       77.66     77.66     77.66     28.15        25.85
  U-731                       0.01      0.01      0.01     14.79         0.01
  U-732                       0.01      0.01      0.01      0.42         0.01
  U-734                       0.01      0.01      0.01      0.41         0.01
  U-736                       0.01      0.01      0.01      0.41         0.01
  U-738                       0.01      0.01      0.01      0.44         0.01
  U-74                       77.66     77.66     77.66      0.02         2.99
  U-740                       0.01      0.01      0.01      0.25         0.01
  U-741                       0.01      0.01      0.01     10.33         0.01
  U-743                       0.01      0.01      0.01      8.79         0.01
  U-745                       0.01      0.01      0.01      7.22         0.01
  U-747                       0.01      0.01      0.01     10.50         0.01
  U-749                       0.01      0.01      0.01      8.46         0.01
  U-75                       77.66     77.66     77.68     35.99        35.84
  U-751                       0.01      0.01      0.01      0.54         0.01
  U-753                       0.01      0.01      0.01      1.73         0.01
  U-755                       0.01      0.01      0.01      0.52         0.01
  U-763                      60.98     61.00     60.98      0.71         4.59
  U-766                      60.97     60.98     60.97      2.14         4.23
  U-769                      58.24     58.25     58.26      2.23         3.17
  U-77                       77.68     77.68     77.72     49.13        48.82
  U-772                      58.26     58.26     58.26      3.05         3.22
  U-775                      58.26     58.27     58.26      2.62         0.19
  U-778                       1.29      1.29      1.33     62.19         0.02
  U-783                      65.51     65.52     65.51      0.70         5.87
  U-786                      65.50     65.51     65.52      9.83        10.85
  U-789                      59.00     59.01     59.01      0.88         5.08
  U-792                      58.99     59.01     59.02     10.97        10.78
  U-795                      59.00     59.02     59.01      0.39         0.61
  U-796                       1.33      3.76      1.33     62.83         0.82
  U-8                        67.64     67.64     72.50      0.01         0.07
  U-801                      69.92     69.93     69.93      0.71         6.08
  U-804                      69.90     69.93     69.95      9.95        11.10
  U-807                      59.73     59.73     59.76      4.77         7.00
  U-81                       77.72     77.72     77.75     42.54        42.29
  U-810                      59.75     59.76     59.77      7.39         8.88
  U-811                      59.76     59.77     59.76      0.43         0.68
  U-815                      42.51     45.05     42.51     66.09        40.33
  U-816                      45.05     46.37     45.05     65.82        41.82
  U-82                       77.75     77.75     77.80     62.94         7.08
  U-820                      75.97     75.97     75.97      0.68         5.36
  U-823                      75.97     75.97     75.97      6.78         8.32
  U-826                      62.26     62.27     62.27      3.40         5.16
  U-829                      62.25     62.27     62.28     10.64        11.46
  U-83                       77.80     77.80     77.81     61.62         6.78
  U-832                      62.27     62.28     62.29      0.49         0.91
  U-833                      62.29     64.10     62.29     66.96        52.79
  U-834                      64.10     64.63     64.10     66.33        53.88
  U-835                      40.92     40.92     67.01      0.01         0.01
  U-837                      52.39     52.39     54.00      0.01         0.01
  U-838                       2.37      2.38      2.38      0.03         0.30
  U-839                       2.37      2.38      2.39      0.38         0.23
  U-840                       2.38      2.39      2.39      0.74         0.24
  U-841                       2.38      2.39      2.39      0.43         0.18
  U-842                       0.89      0.92      0.89      0.74         0.01
  U-846                       0.01      0.01      0.01      0.01         0.01
  U-847                       0.01      0.01      0.01      0.01         0.01
  U-848                      77.83     77.84     77.83     20.86        22.00
  U-851                      76.76     76.76     76.77     14.38        18.74
  U-852                      76.77     76.77     76.77     21.56        15.58
  U-854                      76.77     76.77     76.77     18.16        13.72
  U-856                      70.52     70.63     70.56      0.22         9.62
  U-858                      70.35     70.56     70.38      0.89         9.27
  U-860                      70.07     70.38     70.14      0.62        10.06
  U-863                      70.07     70.13     70.08      0.12         4.26
  U-864                      75.16     75.16     75.21      0.01         0.01
  U-865                      67.01     67.01     73.55      0.01         0.01
  U-866                      73.55     73.55     73.55      0.78         2.68
  U-867                      78.00     78.00     78.00      0.01         0.01
  U-868                      77.99     77.99     78.00      0.01         0.01
  U-869                      77.99     77.99     78.00      0.01         0.01
  U-871                      77.98     77.98     78.00      0.01         0.01
  U-872                      77.98     77.98     77.98      0.01         0.19
  U-874                      13.82     13.82     13.86      9.36         0.01
  U-875                      29.39     29.39     65.58      0.01         0.01
  U-878                      46.95     46.98     46.96      0.87         1.53
  U-879                      46.93     46.96     46.93      1.28         1.84
  U-88                       77.81     77.81     77.82     55.55         7.99
  U-880                      46.93     46.93     65.19      0.01         0.01
  U-885                      65.56     65.59     65.58      0.33         1.05
  U-90                       77.82     77.83     77.82     66.83        67.12
  U-91                       77.82     77.82     77.82     73.52        73.13
  U-92                       77.82     77.82     77.82     69.78         0.33
  U-93                       77.79     77.79     77.96      0.01         0.01
  U-94                       77.96     77.96     77.98      0.01         0.01
  U-95                       77.98     78.00     77.98      0.01         0.01
  U-96                       77.87     77.87     77.87     66.51        66.95
  U-97                       77.83     77.87     77.83     68.18        68.44
  U-98                       77.87     77.87     77.87     46.57        49.62
  U-99                       77.87     77.87     77.88     65.91         0.92
  
  
  ***************
  Pumping Summary
  ***************
  
  ---------------------------------------------------------------------------------------------------------
                                                  Min       Avg       Max     Total     Power    % Time Off
                        Percent   Number of      Flow      Flow      Flow    Volume     Usage    Pump Curve
  Pump                 Utilized   Start-Ups       CFS       CFS       CFS  10^6 gal     Kw-hr    Low   High
  ---------------------------------------------------------------------------------------------------------
  PS-HC1-LAG               0.00           0      0.00      0.00      0.00     0.000      0.00    0.0    0.0
  PS-HC1-LEAD             79.23           3      0.00     10.65     11.14    17.313     41.88    0.0    0.7
  PS-OL1-LAG               0.00           0      0.00      0.00      0.00     0.000      0.00    0.0    0.0
  PS-OL1-LEAD             43.33           5      0.00      1.03      8.91     0.969      8.01    0.0    0.0
  

  Analysis begun on:  Wed Jun 24 08:08:05 2026
  Analysis ended on:  Wed Jun 24 08:08:34 2026
  Total elapsed time: 00:00:29