
  EPA STORM WATER MANAGEMENT MODEL - VERSION 5.2 (Build 5.2.4)
  ------------------------------------------------------------

  
  ERROR 235: invalid infiltration parameters at line 410 of [INFIL] section:
  MC-100_1         4.8        0.278      72        

  
  ERROR 235: invalid infiltration parameters at line 411 of [INFIL] section:
  MC-101_1         4.8        0.255      72        

  
  ERROR 235: invalid infiltration parameters at line 412 of [INFIL] section:
  MC-102_1         4.8        0.264      72        

  
  ERROR 235: invalid infiltration parameters at line 413 of [INFIL] section:
  MC-103_1         4.8        0.252      72        

  
  ERROR 235: invalid infiltration parameters at line 414 of [INFIL] section:
  MC-104_1         4.8        0.309      72        

  
  ERROR 235: invalid infiltration parameters at line 415 of [INFIL] section:
  MC-105_1         4.8        0.285      72        

  
  ERROR 235: invalid infiltration parameters at line 416 of [INFIL] section:
  MC-106_1         4.8        0.321      72        

  
  ERROR 235: invalid infiltration parameters at line 417 of [INFIL] section:
  MC-107_1         4.8        0.307      72        

  
  ERROR 235: invalid infiltration parameters at line 418 of [INFIL] section:
  MC-108_1         4.8        0.316      72        

  
  ERROR 235: invalid infiltration parameters at line 419 of [INFIL] section:
  MC-109_1         5          0.278      72        

  
  ERROR 235: invalid infiltration parameters at line 420 of [INFIL] section:
  MC-110_1         4.8        0.268      72        

  
  ERROR 235: invalid infiltration parameters at line 421 of [INFIL] section:
  MC-111_1         4.8        0.165      72        

  
  ERROR 235: invalid infiltration parameters at line 422 of [INFIL] section:
  MC-112_1         4.8        0.251      72        

  
  ERROR 235: invalid infiltration parameters at line 423 of [INFIL] section:
  MC-113_1         4.8        0.301      72        

  
  ERROR 235: invalid infiltration parameters at line 424 of [INFIL] section:
  MC-114_1         4.8        0.239      72        

  
  ERROR 235: invalid infiltration parameters at line 425 of [INFIL] section:
  MC-115_1         4.8        0.242      72        

  
  ERROR 235: invalid infiltration parameters at line 426 of [INFIL] section:
  MC-116_1         4.8        0.301      72        

  
  ERROR 235: invalid infiltration parameters at line 427 of [INFIL] section:
  MC-117_1         4.8        0.208      72        

  
  ERROR 235: invalid infiltration parameters at line 428 of [INFIL] section:
  MC-118_1         4.8        0.25       72        

  
  ERROR 235: invalid infiltration parameters at line 429 of [INFIL] section:
  MC-119_1         4.9        0.291      72        

  
  ERROR 235: invalid infiltration parameters at line 430 of [INFIL] section:
  MC-120_1         4.8        0.199      72        

  
  ERROR 235: invalid infiltration parameters at line 431 of [INFIL] section:
  MC-121_1         4.98       0.258      72        

  
  ERROR 235: invalid infiltration parameters at line 432 of [INFIL] section:
  MC-122_1         4.99       0.232      72        

  
  ERROR 235: invalid infiltration parameters at line 433 of [INFIL] section:
  MC-123_1         4.8        0.249      72        

  
  ERROR 235: invalid infiltration parameters at line 434 of [INFIL] section:
  MC-124_1         4.8        0.271      72        

  
  ERROR 235: invalid infiltration parameters at line 435 of [INFIL] section:
  MC-125_1         4.8        0.261      72        

  
  ERROR 235: invalid infiltration parameters at line 436 of [INFIL] section:
  MC-126_1         4.93       0.294      72        

  
  ERROR 235: invalid infiltration parameters at line 437 of [INFIL] section:
  MC-127_1         4.8        0.334      72        

  
  ERROR 235: invalid infiltration parameters at line 438 of [INFIL] section:
  MC-128_1         4.8        0.257      72        

  
  ERROR 235: invalid infiltration parameters at line 439 of [INFIL] section:
  MC-129_1         4.8        0.26       72        

  
  ERROR 235: invalid infiltration parameters at line 440 of [INFIL] section:
  MC-130_1         4.85       0.268      72        

  
  ERROR 235: invalid infiltration parameters at line 441 of [INFIL] section:
  MC-131_1         4.81       0.26       72        

  
  ERROR 235: invalid infiltration parameters at line 442 of [INFIL] section:
  MC-132_1         4.8        0.263      72        

  
  ERROR 235: invalid infiltration parameters at line 443 of [INFIL] section:
  MC-133_1         4.8        0.265      72        

  
  ERROR 235: invalid infiltration parameters at line 444 of [INFIL] section:
  MC-134_1         4.8        0.25       72        

  
  ERROR 235: invalid infiltration parameters at line 445 of [INFIL] section:
  MC-135_1         4.8        0.258      72        

  
  ERROR 235: invalid infiltration parameters at line 446 of [INFIL] section:
  MC-136_1         4.8        0.297      72        

  
  ERROR 235: invalid infiltration parameters at line 447 of [INFIL] section:
  MC-137_1         4.8        0.277      72        

  
  ERROR 235: invalid infiltration parameters at line 448 of [INFIL] section:
  MC-138_1         4.8        0.341      72        

  
  ERROR 235: invalid infiltration parameters at line 449 of [INFIL] section:
  MC-139_1         5.73       0.242      68.4      

  
  ERROR 235: invalid infiltration parameters at line 450 of [INFIL] section:
  MC-140_1         7.33       0.178      57.6      

  
  ERROR 235: invalid infiltration parameters at line 451 of [INFIL] section:
  MC-141_1         6.71       0.217      61.2      

  
  ERROR 235: invalid infiltration parameters at line 452 of [INFIL] section:
  MC-142_1         4.8        0.25       72        

  
  ERROR 235: invalid infiltration parameters at line 453 of [INFIL] section:
  MC-143_1         4.8        0.26       72        

  
  ERROR 235: invalid infiltration parameters at line 454 of [INFIL] section:
  MC-144_1         4.8        0.266      72        

  
  ERROR 235: invalid infiltration parameters at line 455 of [INFIL] section:
  MC-145_1         4.8        0.319      72        

  
  ERROR 235: invalid infiltration parameters at line 456 of [INFIL] section:
  MC-146_1         4.8        0.259      72        

  
  ERROR 235: invalid infiltration parameters at line 457 of [INFIL] section:
  MC-147_1         4.84       0.271      72        

  
  ERROR 235: invalid infiltration parameters at line 458 of [INFIL] section:
  MC-148_1         4.9        0.305      72        

  
  ERROR 235: invalid infiltration parameters at line 459 of [INFIL] section:
  MC-149_1         4.8        0.285      72        

  
  ERROR 235: invalid infiltration parameters at line 460 of [INFIL] section:
  MC-150_1         4.8        0.258      72        

  
  ERROR 235: invalid infiltration parameters at line 461 of [INFIL] section:
  MC-151_1         4.8        0.283      72        

  
  ERROR 235: invalid infiltration parameters at line 462 of [INFIL] section:
  MC-152_1         4.8        0.285      72        

  
  ERROR 235: invalid infiltration parameters at line 463 of [INFIL] section:
  MC-153_1         4.8        0.288      72        

  
  ERROR 235: invalid infiltration parameters at line 464 of [INFIL] section:
  MC-154_1         4.8        0.3        72        

  
  ERROR 235: invalid infiltration parameters at line 465 of [INFIL] section:
  MC-155_1         4.81       0.26       72        

  
  ERROR 235: invalid infiltration parameters at line 466 of [INFIL] section:
  MC-156_1         4.8        0.26       72        

  
  ERROR 235: invalid infiltration parameters at line 467 of [INFIL] section:
  MC-157_1         5.86       0.225      64.8      

  
  ERROR 235: invalid infiltration parameters at line 468 of [INFIL] section:
  MC-158_1         4.8        0.262      72        

  
  ERROR 235: invalid infiltration parameters at line 469 of [INFIL] section:
  MC-159_1         4.77       0.303      72        

  
  ERROR 235: invalid infiltration parameters at line 470 of [INFIL] section:
  MC-160_1         4.8        0.28       72        

  
  ERROR 235: invalid infiltration parameters at line 471 of [INFIL] section:
  MC-161_1         4.8        0.307      72        

  
  ERROR 235: invalid infiltration parameters at line 472 of [INFIL] section:
  MC-162_1         4.8        0.269      72        

  
  ERROR 235: invalid infiltration parameters at line 473 of [INFIL] section:
  MC-163_1         4.8        0.276      72        

  
  ERROR 235: invalid infiltration parameters at line 474 of [INFIL] section:
  MC-164_1         4.8        0.262      72        

  
  ERROR 235: invalid infiltration parameters at line 475 of [INFIL] section:
  MC-165_1         4.8        0.279      72        

  
  ERROR 235: invalid infiltration parameters at line 476 of [INFIL] section:
  MC-166_1         4.8        0.259      72        

  
  ERROR 235: invalid infiltration parameters at line 477 of [INFIL] section:
  MC-167_1         4.8        0.334      72        

  
  ERROR 235: invalid infiltration parameters at line 478 of [INFIL] section:
  MC-168_1         4.8        0.342      72        

  
  ERROR 235: invalid infiltration parameters at line 479 of [INFIL] section:
  MC-169_1         4.8        0.311      72        

  
  ERROR 235: invalid infiltration parameters at line 480 of [INFIL] section:
  MC-17_1          5.19       0.571      72        

  
  ERROR 235: invalid infiltration parameters at line 481 of [INFIL] section:
  MC-170_1         4.8        0.26       72        

  
  ERROR 235: invalid infiltration parameters at line 482 of [INFIL] section:
  MC-171_1         4.8        0.263      72        

  
  ERROR 235: invalid infiltration parameters at line 483 of [INFIL] section:
  MC-172_1         4.8        0.34       72        

  
  ERROR 235: invalid infiltration parameters at line 484 of [INFIL] section:
  MC-173_1         4.8        0.302      72        

  
  ERROR 235: invalid infiltration parameters at line 485 of [INFIL] section:
  MC-174_1         4.8        0.279      72        

  
  ERROR 235: invalid infiltration parameters at line 486 of [INFIL] section:
  MC-175_1         4.8        0.288      72        

  
  ERROR 235: invalid infiltration parameters at line 487 of [INFIL] section:
  MC-176_1         4.8        0.26       72        

  
  ERROR 235: invalid infiltration parameters at line 488 of [INFIL] section:
  MC-177_1         4.8        0.26       72        

  
  ERROR 235: invalid infiltration parameters at line 489 of [INFIL] section:
  MC-178_1         4.8        0.29       72        

  
  ERROR 235: invalid infiltration parameters at line 490 of [INFIL] section:
  MC-179_1         4.8        0.276      72        

  
  ERROR 235: invalid infiltration parameters at line 491 of [INFIL] section:
  MC-18_1          5.81       0.491      64.8      

  
  ERROR 235: invalid infiltration parameters at line 492 of [INFIL] section:
  MC-180_1         4.8        0.288      72        

  
  ERROR 235: invalid infiltration parameters at line 493 of [INFIL] section:
  MC-181_1         4.8        0.29       72        

  
  ERROR 235: invalid infiltration parameters at line 494 of [INFIL] section:
  MC-182_1         4.8        0.304      72        

  
  ERROR 235: invalid infiltration parameters at line 495 of [INFIL] section:
  MC-183_1         4.8        0.266      72        

  
  ERROR 235: invalid infiltration parameters at line 496 of [INFIL] section:
  MC-184_1         4.8        0.349      72        

  
  ERROR 235: invalid infiltration parameters at line 497 of [INFIL] section:
  MC-19_1          5.91       0.408      64.8      

  
  ERROR 235: invalid infiltration parameters at line 498 of [INFIL] section:
  MC-20_1          5.98       0.426      64.8      

  
  ERROR 235: invalid infiltration parameters at line 499 of [INFIL] section:
  MC-21_1          6.89       0.321      61.2      

  
  ERROR 235: invalid infiltration parameters at line 500 of [INFIL] section:
  MC-22_1          5.85       0.511      68.4      

  
  ERROR 235: invalid infiltration parameters at line 501 of [INFIL] section:
  MC-23_1          6.11       0.479      64.8      

  
  ERROR 235: invalid infiltration parameters at line 502 of [INFIL] section:
  MC-24_1          4.96       0.399      72        

  
  ERROR 235: invalid infiltration parameters at line 503 of [INFIL] section:
  MC-25_1          5.2        0.551      75.6      

  
  ERROR 235: invalid infiltration parameters at line 504 of [INFIL] section:
  MC-26_1          5.19       0.499      72        

  
  ERROR 235: invalid infiltration parameters at line 505 of [INFIL] section:
  MC-27_1          5.45       0.484      68.4      

  
  ERROR 235: invalid infiltration parameters at line 506 of [INFIL] section:
  MC-28_1          5.38       0.808      75.6      

  
  ERROR 235: invalid infiltration parameters at line 507 of [INFIL] section:
  MC-29_1          4.46       0.905      82.8      

  
  ERROR 235: invalid infiltration parameters at line 508 of [INFIL] section:
  MC-30_1          4.94       0.704      75.6      

  
  ERROR 235: invalid infiltration parameters at line 509 of [INFIL] section:
  MC-31_1          5.71       0.453      68.4      

  
  Maximum error count exceeded.

  Analysis begun on:  Wed Jun 24 08:08:36 2026
  Analysis ended on:  Wed Jun 24 08:08:36 2026
  Total elapsed time: < 1 sec