
  EPA STORM WATER MANAGEMENT MODEL - VERSION 5.2 (Build 5.2.4)
  ------------------------------------------------------------

  WARNING 04: minimum elevation drop used for Conduit CDT-133
  WARNING 04: minimum elevation drop used for Conduit CDT-137
  WARNING 04: minimum elevation drop used for Conduit CDT-169
  WARNING 04: minimum elevation drop used for Conduit CDT-173
  WARNING 04: minimum elevation drop used for Conduit CDT-29
  WARNING 04: minimum elevation drop used for Conduit CDT-33
  WARNING 04: minimum elevation drop used for Conduit CDT-39
  WARNING 04: minimum elevation drop used for Conduit CDT-41
  WARNING 04: minimum elevation drop used for Conduit CDT-45
  WARNING 04: minimum elevation drop used for Conduit E12167-E12166
  WARNING 02: maximum depth increased for Node CELL-3_MH
  WARNING 02: maximum depth increased for Node E11114
  WARNING 02: maximum depth increased for Node E11144
  WARNING 02: maximum depth increased for Node E11151
  WARNING 02: maximum depth increased for Node E11441
  WARNING 02: maximum depth increased for Node F1150
  
  ****************
  Analysis Options
  ****************
  Flow Units ............... CFS
  Process Models:
    Rainfall/Runoff ........ YES
    RDII ................... NO
    Snowmelt ............... NO
    Groundwater ............ NO
    Flow Routing ........... YES
    Ponding Allowed ........ YES
    Water Quality .......... NO
  Infiltration Method ...... HORTON
  Flow Routing Method ...... DYNWAVE
  Surcharge Method ......... EXTRAN
  Starting Date ............ 06/15/2012 00:00:00
  Ending Date .............. 06/16/2012 00:00:00
  Antecedent Dry Days ...... 5.0
  Report Time Step ......... 00:05:00
  Wet Time Step ............ 00:01:00
  Dry Time Step ............ 01:00:00
  Routing Time Step ........ 10.00 sec
  Variable Time Step ....... YES
  Maximum Trials ........... 4
  Number of Threads ........ 1
  Head Tolerance ........... 0.005000 ft
  
  
  **************************        Volume         Depth
  Runoff Quantity Continuity     acre-feet        inches
  **************************     ---------       -------
  Total Precipitation ......        56.115         3.566
  Evaporation Loss .........         0.000         0.000
  Infiltration Loss ........         0.000         0.000
  Surface Runoff ...........        41.053         2.609
  Final Storage ............        15.072         0.958
  Continuity Error (%) .....        -0.018
  
  
  **************************        Volume        Volume
  Flow Routing Continuity        acre-feet      10^6 gal
  **************************     ---------     ---------
  Dry Weather Inflow .......         0.000         0.000
  Wet Weather Inflow .......        41.043        13.375
  Groundwater Inflow .......         0.000         0.000
  RDII Inflow ..............         0.000         0.000
  External Inflow ..........         4.726         1.540
  External Outflow .........        34.277        11.170
  Flooding Loss ............         4.950         1.613
  Evaporation Loss .........         0.000         0.000
  Exfiltration Loss ........         0.000         0.000
  Initial Stored Volume ....         1.744         0.568
  Final Stored Volume ......         5.808         1.893
  Continuity Error (%) .....         5.215
  
  
  *************************
  Highest Continuity Errors
  *************************
  Node JCT-26 (49.43%)
  Node JCT-32 (9.26%)
  Node E11213 (2.84%)
  Node F1158 (1.87%)
  Node JCT-34 (1.69%)
  
  
  ***************************
  Time-Step Critical Elements
  ***************************
  Link E11181-E11179 (30.91%)
  Link E11187-E11185 (12.28%)
  Link E12197-E12195 (8.85%)
  Link E11142-E11141 (4.65%)
  Link CDT-127 (3.64%)
  
  
  ********************************
  Highest Flow Instability Indexes
  ********************************
  Link CDT-133 (4)
  Link CDT-149 (4)
  Link CDT-151 (4)
  Link CELL-3_IN (3)
  Link CDT-153 (3)
  
  
  *********************************
  Most Frequent Nonconverging Nodes
  *********************************
  Node OUTFALL (6.29%)
  Node CELL-3_MH (1.08%)
  Node E12190 (0.85%)
  Node F1171 (0.75%)
  Node E12200 (0.70%)
  
  
  *************************
  Routing Time Step Summary
  *************************
  Minimum Time Step           :     0.50 sec
  Average Time Step           :     4.52 sec
  Maximum Time Step           :    10.00 sec
  % of Time in Steady State   :     0.00
  Average Iterations per Step :     2.16
  % of Steps Not Converging   :     6.29
  Time Step Frequencies       :
     10.000 -  5.493 sec      :    34.42 %
      5.493 -  3.017 sec      :    31.43 %
      3.017 -  1.657 sec      :    25.25 %
      1.657 -  0.910 sec      :     7.17 %
      0.910 -  0.500 sec      :     1.74 %
  
  
  ***************************
  Subcatchment Runoff Summary
  ***************************
  
  ------------------------------------------------------------------------------------------------------------------------------
                            Total      Total      Total      Total     Imperv       Perv      Total       Total     Peak  Runoff
                           Precip      Runon       Evap      Infil     Runoff     Runoff     Runoff      Runoff   Runoff   Coeff
  Subcatchment                 in         in         in         in         in         in         in    10^6 gal      CFS
  ------------------------------------------------------------------------------------------------------------------------------
  SUB-10                     3.57       0.00       0.00       0.00       1.37       0.81       2.19        0.23     2.00   0.614
  SUB-100                    3.57       0.00       0.00       0.00       1.44       1.33       2.77        0.13     1.74   0.776
  SUB-102                    3.57       0.00       0.00       0.00       1.44       1.44       2.88        0.24     3.59   0.809
  SUB-104                    3.57       0.00       0.00       0.00       1.47       1.73       3.20        0.06     1.34   0.896
  SUB-106                    3.57       0.00       0.00       0.00       1.45       1.50       2.95        0.09     1.40   0.826
  SUB-108                    3.57       0.00       0.00       0.00       1.47       1.76       3.24        0.03     0.68   0.907
  SUB-110                    3.57       0.00       0.00       0.00       1.47       1.78       3.26        0.01     0.22   0.913
  SUB-112                    3.57       0.00       0.00       0.00       1.45       1.50       2.95        0.11     1.75   0.828
  SUB-114                    3.57       0.00       0.00       0.00       1.48       1.87       3.35        0.01     0.26   0.940
  SUB-116                    3.57       0.00       0.00       0.00       1.46       1.58       3.04        0.06     1.15   0.851
  SUB-118                    3.57       0.00       0.00       0.00       1.44       1.34       2.78        0.31     4.28   0.779
  SUB-12                     3.57       0.00       0.00       0.00       1.46       1.66       3.13        0.01     0.30   0.877
  SUB-120                    3.57       0.00       0.00       0.00       1.46       1.60       3.06        0.09     1.69   0.858
  SUB-122                    3.57       0.00       0.00       0.00       1.46       1.62       3.08        0.02     0.40   0.864
  SUB-124                    3.57       0.00       0.00       0.00       1.47       1.77       3.24        0.03     0.61   0.909
  SUB-126                    3.57       0.00       0.00       0.00       1.47       1.72       3.19        0.04     0.91   0.893
  SUB-128                    3.57       0.00       0.00       0.00       1.47       1.80       3.27        0.05     1.19   0.917
  SUB-130                    3.57       0.00       0.00       0.00       1.47       1.70       3.16        0.07     1.45   0.887
  SUB-132                    3.57       0.00       0.00       0.00       1.48       1.83       3.31        0.01     0.38   0.929
  SUB-134                    3.57       0.00       0.00       0.00       1.48       1.83       3.31        0.01     0.31   0.929
  SUB-136                    3.57       0.00       0.00       0.00       1.45       1.56       3.02        0.03     0.58   0.846
  SUB-138                    3.57       0.00       0.00       0.00       1.47       1.79       3.27        0.01     0.37   0.916
  SUB-14                     3.57       0.00       0.00       0.00       1.49       1.88       3.36        0.00     0.04   0.943
  SUB-140                    3.57       0.00       0.00       0.00       1.47       1.77       3.24        0.07     1.77   0.908
  SUB-142                    3.57       0.00       0.00       0.00       1.45       1.51       2.96        0.06     0.99   0.831
  SUB-144                    3.57       0.00       0.00       0.00       1.28       0.50       1.78        0.30     1.93   0.500
  SUB-146                    3.57       0.00       0.00       0.00       1.41       1.09       2.51        0.26     2.94   0.703
  SUB-148                    3.57       0.00       0.00       0.00       1.47       1.77       3.24        0.03     0.62   0.908
  SUB-150                    3.57       0.00       0.00       0.00       1.46       1.70       3.16        0.11     2.27   0.887
  SUB-152                    3.57       0.00       0.00       0.00       1.47       1.77       3.24        0.01     0.33   0.909
  SUB-154                    3.57       0.00       0.00       0.00       1.47       1.72       3.19        0.05     1.14   0.894
  SUB-156                    3.57       0.00       0.00       0.00       1.46       1.62       3.08        0.09     1.68   0.863
  SUB-158                    3.57       0.00       0.00       0.00       1.46       1.62       3.08        0.06     1.08   0.864
  SUB-16                     3.57       0.00       0.00       0.00       1.45       1.50       2.95        0.21     3.49   0.828
  SUB-160                    3.57       0.00       0.00       0.00       1.48       1.87       3.36        0.01     0.29   0.941
  SUB-162                    3.57       0.00       0.00       0.00       1.45       1.52       2.97        0.10     1.72   0.833
  SUB-164                    3.57       0.00       0.00       0.00       1.45       1.53       2.98        0.13     2.18   0.835
  SUB-166                    3.57       0.00       0.00       0.00       1.44       1.37       2.81        0.15     2.07   0.789
  SUB-168                    3.57       0.00       0.00       0.00       1.47       1.78       3.25        0.03     0.81   0.911
  SUB-170                    3.57       0.00       0.00       0.00       1.48       1.84       3.32        0.01     0.24   0.931
  SUB-172                    3.57       0.00       0.00       0.00       1.46       1.68       3.14        0.04     0.89   0.881
  SUB-174                    3.57       0.00       0.00       0.00       1.46       1.69       3.15        0.06     1.22   0.883
  SUB-176                    3.57       0.00       0.00       0.00       1.45       1.53       2.98        0.10     1.75   0.837
  SUB-178                    3.57       0.00       0.00       0.00       1.48       1.84       3.32        0.01     0.16   0.930
  SUB-18                     3.57       0.00       0.00       0.00       1.45       1.52       2.97        0.15     2.44   0.833
  SUB-180                    3.57       0.00       0.00       0.00       1.48       1.82       3.29        0.01     0.15   0.924
  SUB-182                    3.57       0.00       0.00       0.00       1.44       1.43       2.87        0.11     1.63   0.805
  SUB-184                    3.57       0.00       0.00       0.00       1.42       1.19       2.62        0.15     1.84   0.733
  SUB-186                    3.57       0.00       0.00       0.00       1.39       0.93       2.32        0.79     7.72   0.652
  SUB-188                    3.57       0.00       0.00       0.00       1.43       1.22       2.64        0.10     1.30   0.741
  SUB-190                    3.57       0.00       0.00       0.00       1.45       1.54       2.99        0.13     2.18   0.839
  SUB-192                    3.57       0.00       0.00       0.00       1.44       1.40       2.84        0.04     0.57   0.796
  SUB-194                    3.57       0.00       0.00       0.00       1.46       1.68       3.15        0.13     2.71   0.883
  SUB-196                    3.57       0.00       0.00       0.00       1.48       1.86       3.34        0.00     0.14   0.936
  SUB-198                    3.57       0.00       0.00       0.00       1.48       1.82       3.29        0.01     0.28   0.923
  SUB-20                     3.57       0.00       0.00       0.00       1.45       1.47       2.92        0.07     1.06   0.818
  SUB-200                    3.57       0.00       0.00       0.00       1.45       1.50       2.95        0.07     1.09   0.827
  SUB-202                    3.57       0.00       0.00       0.00       1.48       1.85       3.33        0.01     0.34   0.933
  SUB-204                    3.57       0.00       0.00       0.00       1.46       1.69       3.16        0.07     1.46   0.885
  SUB-206                    3.57       0.00       0.00       0.00       1.48       1.83       3.31        0.01     0.27   0.929
  SUB-208                    3.57       0.00       0.00       0.00       1.46       1.61       3.06        0.18     3.32   0.859
  SUB-210                    3.57       0.00       0.00       0.00       1.45       1.57       3.02        0.08     1.40   0.848
  SUB-212                    3.57       0.00       0.00       0.00       1.47       1.73       3.20        0.05     1.15   0.897
  SUB-214                    3.57       0.00       0.00       0.00       1.46       1.64       3.10        0.09     1.79   0.870
  SUB-216                    3.57       0.00       0.00       0.00       1.46       1.66       3.12        0.08     1.58   0.874
  SUB-218                    3.57       0.00       0.00       0.00       1.46       1.66       3.12        0.16     3.19   0.875
  SUB-22                     3.57       0.00       0.00       0.00       1.46       1.68       3.14        0.16     3.27   0.881
  SUB-220                    3.57       0.00       0.00       0.00       1.43       1.32       2.76        0.16     2.21   0.773
  SUB-222                    3.57       0.00       0.00       0.00       1.47       1.76       3.23        0.03     0.78   0.906
  SUB-224                    3.57       0.00       0.00       0.00       1.46       1.68       3.14        0.14     2.82   0.880
  SUB-226                    3.57       0.00       0.00       0.00       1.41       1.03       2.44        0.34     3.56   0.683
  SUB-228                    3.57       0.00       0.00       0.00       1.42       1.14       2.56        0.15     1.72   0.718
  SUB-230                    3.57       0.00       0.00       0.00       1.46       1.60       3.06        0.15     2.73   0.857
  SUB-232                    3.57       0.00       0.00       0.00       1.45       1.50       2.95        0.08     1.31   0.826
  SUB-234                    3.57       0.00       0.00       0.00       1.45       1.51       2.96        0.02     0.35   0.829
  SUB-236                    3.57       0.00       0.00       0.00       1.37       0.77       2.14        0.14     1.22   0.600
  SUB-24                     3.57       0.00       0.00       0.00       1.44       1.38       2.82        0.05     0.68   0.789
  SUB-26                     3.57       0.00       0.00       0.00       1.47       1.72       3.19        0.06     1.37   0.894
  SUB-28                     3.57       0.00       0.00       0.00       1.45       1.58       3.03        0.11     1.88   0.850
  SUB-30                     3.57       0.00       0.00       0.00       1.45       1.55       3.00        0.11     1.83   0.843
  SUB-32                     3.57       0.00       0.00       0.00       1.47       1.72       3.19        0.07     1.50   0.895
  SUB-34                     3.57       0.00       0.00       0.00       1.46       1.65       3.11        0.04     0.84   0.871
  SUB-36                     3.57       0.00       0.00       0.00       1.45       1.51       2.96        0.07     1.23   0.831
  SUB-38                     3.57       0.00       0.00       0.00       1.48       1.84       3.32        0.02     0.60   0.931
  SUB-40                     3.57       0.00       0.00       0.00       1.48       1.81       3.29        0.01     0.38   0.922
  SUB-42                     3.57       0.00       0.00       0.00       1.48       1.82       3.29        0.03     0.74   0.924
  SUB-44                     3.57       0.00       0.00       0.00       1.48       1.81       3.28        0.04     1.14   0.921
  SUB-46                     3.57       0.00       0.00       0.00       1.39       0.91       2.31        0.20     1.93   0.647
  SUB-48                     3.57       0.00       0.00       0.00       1.39       0.94       2.33        0.31     3.04   0.654
  SUB-50                     3.57       0.00       0.00       0.00       1.38       0.86       2.24        0.46     4.20   0.629
  SUB-52                     3.57       0.00       0.00       0.00       1.45       1.47       2.92        0.15     2.39   0.819
  SUB-54                     3.57       0.00       0.00       0.00       1.46       1.61       3.06        0.01     0.26   0.859
  SUB-56                     3.57       0.00       0.00       0.00       1.46       1.68       3.15        0.04     0.85   0.882
  SUB-58                     3.57       0.00       0.00       0.00       1.47       1.74       3.21        0.04     0.95   0.900
  SUB-60                     3.57       0.00       0.00       0.00       1.47       1.77       3.24        0.03     0.75   0.908
  SUB-62                     3.57       0.00       0.00       0.00       1.44       1.36       2.79        0.56     7.85   0.783
  SUB-64                     3.57       0.00       0.00       0.00       1.49       1.88       3.37        0.00     0.11   0.945
  SUB-66                     3.57       0.00       0.00       0.00       1.48       1.85       3.33        0.01     0.24   0.934
  SUB-68                     3.57       0.00       0.00       0.00       1.47       1.74       3.20        0.05     1.05   0.898
  SUB-70                     3.57       0.00       0.00       0.00       1.47       1.77       3.24        0.08     1.81   0.909
  SUB-72                     3.57       0.00       0.00       0.00       1.48       1.84       3.32        0.00     0.11   0.931
  SUB-74                     3.57       0.00       0.00       0.00       1.47       1.76       3.23        0.01     0.20   0.906
  SUB-76                     3.57       0.00       0.00       0.00       1.47       1.76       3.24        0.01     0.23   0.907
  SUB-78                     3.57       0.00       0.00       0.00       1.48       1.87       3.36        0.00     0.06   0.941
  SUB-80                     3.57       0.00       0.00       0.00       1.47       1.79       3.27        0.02     0.39   0.916
  SUB-82                     3.57       0.00       0.00       0.00       1.43       1.31       2.74        0.13     1.73   0.769
  SUB-84                     3.57       0.00       0.00       0.00       1.36       0.76       2.12        0.51     4.32   0.595
  SUB-86                     3.57       0.00       0.00       0.00       1.41       1.04       2.45        0.23     2.46   0.686
  SUB-88                     3.57       0.00       0.00       0.00       1.40       1.01       2.41        0.42     4.41   0.676
  SUB-90                     3.57       0.00       0.00       0.00       1.38       0.83       2.21        0.66     5.95   0.619
  SUB-92                     3.57       0.00       0.00       0.00       1.40       1.00       2.40        0.73     7.52   0.672
  SUB-94                     3.57       0.00       0.00       0.00       1.41       1.03       2.43        0.62     6.54   0.682
  SUB-96                     3.57       0.00       0.00       0.00       1.45       1.56       3.01        0.06     0.98   0.845
  SUB-98                     3.57       0.00       0.00       0.00       1.47       1.76       3.23        0.03     0.73   0.905
  
  
  ******************
  Node Depth Summary
  ******************
  
  ---------------------------------------------------------------------------------
                                 Average  Maximum  Maximum  Time of Max    Reported
                                   Depth    Depth      HGL   Occurrence   Max Depth
  Node                 Type         Feet     Feet     Feet  days hr:min        Feet
  ---------------------------------------------------------------------------------
  CELL-3_MH            JUNCTION     3.15     4.49     3.23     0  17:56        4.42
  E11100               JUNCTION     3.25     4.81     4.45     0  12:00        4.80
  E11101               JUNCTION     4.03     6.02     4.88     0  12:09        6.01
  E11102               JUNCTION     0.47     2.47     4.97     0  12:10        2.47
  E11104               JUNCTION     0.09     1.83     4.88     0  12:09        1.82
  E11106               JUNCTION     0.03     0.12     5.74     0  12:00        0.12
  E11113               JUNCTION     3.66     4.42     3.65     0  12:17        4.41
  E11114               JUNCTION     3.65     4.45     3.69     0  12:17        4.45
  E11115               JUNCTION     1.97     2.81     3.74     0  12:11        2.79
  E11116               JUNCTION     2.07     2.95     3.78     0  12:11        2.92
  E11117               JUNCTION     2.05     3.05     3.91     0  12:06        3.02
  E11119               JUNCTION     3.62     4.46     3.74     0  12:17        4.46
  E11120               JUNCTION     0.98     1.93     3.94     0  12:06        1.90
  E11121               JUNCTION     0.78     1.83     4.05     0  12:06        1.79
  E11122               JUNCTION     3.61     4.49     3.78     0  12:17        4.48
  E11123               JUNCTION     1.03     2.37     5.18     0  12:06        2.34
  E11124               JUNCTION     0.96     2.48     5.49     0  12:06        2.46
  E11125               JUNCTION     1.01     2.90     6.06     0  12:06        2.87
  E11126               JUNCTION     0.80     3.62     7.51     0  13:22        3.61
  E11127               JUNCTION     1.43     5.10     8.72     0  13:14        5.10
  E11128               JUNCTION     0.91     5.14     9.83     0  13:00        5.14
  E11129               JUNCTION     0.36     1.96     6.10     0  12:06        1.93
  E11130               JUNCTION     0.25     1.63     6.10     0  12:06        1.60
  E11131               JUNCTION     3.68     4.61     3.84     0  12:17        4.61
  E11132               JUNCTION     1.81     2.62     3.98     0  12:19        2.62
  E11133               JUNCTION     3.71     4.66     3.87     0  12:17        4.65
  E11134               JUNCTION     0.52     1.31     4.14     0  12:04        1.29
  E11135               JUNCTION     3.72     4.69     3.89     0  12:17        4.69
  E11136               JUNCTION     1.82     2.89     4.01     0  12:17        2.89
  E11137               JUNCTION     2.35     3.48     4.07     0  12:17        3.48
  E11139               JUNCTION     3.78     4.77     3.91     0  12:17        4.77
  E11140               JUNCTION     3.52     4.53     3.93     0  12:17        4.53
  E11141               JUNCTION     1.01     2.02     4.22     0  12:11        2.01
  E11142               JUNCTION     1.07     2.23     4.38     0  12:06        2.21
  E11143               JUNCTION     3.28     4.33     3.98     0  12:16        4.33
  E11144               JUNCTION     1.50     2.60     4.05     0  12:15        2.60
  E11145               JUNCTION     3.24     4.36     4.07     0  12:15        4.36
  E11146               JUNCTION     0.15     1.25     4.21     0  12:06        1.21
  E11147               JUNCTION     2.77     4.11     4.32     0  12:14        4.11
  E11148               JUNCTION     1.04     2.37     4.33     0  12:11        2.37
  E11149               JUNCTION     0.07     0.55     4.33     0  12:13        0.55
  E11150               JUNCTION     2.71     4.13     4.42     0  12:14        4.13
  E11151               JUNCTION     3.17     3.65     7.54     0  12:06        3.64
  E11152               JUNCTION     2.70     4.19     4.50     0  12:14        4.19
  E11171               JUNCTION     1.43     2.49     4.02     0  12:15        2.49
  E11172               JUNCTION     0.68     1.76     4.04     0  12:15        1.76
  E11173               JUNCTION     0.41     1.48     4.04     0  12:15        1.48
  E11174               JUNCTION     2.96     4.18     4.19     0  12:17        4.18
  E11175               JUNCTION     2.68     3.97     4.28     0  12:17        3.96
  E11176               JUNCTION     1.50     2.95     4.50     0  12:18        2.95
  E11177               JUNCTION     1.59     3.04     4.50     0  12:18        3.04
  E11178               JUNCTION     3.07     4.62     4.62     0  12:19        4.61
  E11179               JUNCTION     2.50     4.09     4.67     0  12:18        4.08
  E11180               JUNCTION     0.36     1.93     4.69     0  12:17        1.92
  E11181               JUNCTION     2.56     4.30     4.89     0  12:21        4.30
  E11182               JUNCTION     0.48     2.24     4.95     0  12:19        2.23
  E11183               JUNCTION     2.47     4.36     5.12     0  12:22        4.36
  E11184               JUNCTION     0.30     1.96     5.29     0  12:19        1.95
  E11185               JUNCTION     2.57     4.69     5.48     0  12:26        4.68
  E11186               JUNCTION     0.86     2.95     5.48     0  12:26        2.95
  E11187               JUNCTION     2.67     5.05     5.90     0  12:28        5.05
  E11188               JUNCTION     1.38     3.74     5.90     0  12:28        3.74
  E11210               JUNCTION     3.37     4.41     3.97     0  12:16        4.40
  E11211               JUNCTION     1.00     1.79     4.38     0  12:12        1.79
  E11212               JUNCTION     3.40     4.42     3.95     0  12:17        4.42
  E11213               JUNCTION     0.83     1.35     3.97     0  12:17        1.34
  E11214               JUNCTION     0.67     1.18     3.97     0  12:17        1.17
  E11215               JUNCTION     1.67     2.92     3.06     0  13:10        2.92
  E11216               JUNCTION     1.16     2.09     3.22     0  13:10        2.08
  E11217               JUNCTION     1.07     1.95     3.36     0  13:10        1.94
  E11441               JUNCTION     1.98     3.37     4.41     0  12:18        3.37
  E11442               JUNCTION     1.29     2.79     4.54     0  12:24        2.79
  E11443               JUNCTION     3.56     6.01     5.59     0  12:50        6.01
  E11444               JUNCTION     2.93     5.32     5.59     0  12:51        5.32
  E11446               JUNCTION     2.50     3.95     3.02     0  13:09        3.95
  E11447               JUNCTION     1.91     3.23     3.21     0  12:15        3.23
  E1156                JUNCTION     4.91     5.13     3.05     0  12:16        5.13
  E1157                JUNCTION     2.75     3.74     3.85     0  00:05        3.53
  E1160                JUNCTION     2.27     2.74     3.32     0  00:07        2.69
  E1175                JUNCTION     5.82    11.36     8.38     0  00:03        6.21
  E1176                JUNCTION     6.00     7.40     4.25     0  00:03        6.61
  E1177                JUNCTION     3.66     4.31     3.51     0  12:19        4.31
  E1178                JUNCTION     5.24     6.11     3.73     0  00:04        6.01
  E1179                JUNCTION     5.25     6.12     3.74     0  12:18        6.11
  E1180                JUNCTION     3.86     4.63     3.64     0  12:19        4.63
  E1181                JUNCTION     2.23     3.46     4.13     0  12:14        3.46
  E1182                JUNCTION     1.75     3.50     4.68     0  12:06        3.45
  E1183                JUNCTION     0.42     2.59     5.11     0  12:06        2.51
  E1184                JUNCTION     0.36     3.35     6.73     0  12:06        3.34
  E1185                JUNCTION     0.37     3.33     7.11     0  12:11        3.32
  E1186                JUNCTION     0.21     2.82     6.78     0  12:06        2.80
  E1189                JUNCTION     5.03     5.50     3.32     0  12:17        5.50
  E1193                JUNCTION     4.27     4.83     3.41     0  12:18        4.83
  E1194                JUNCTION     3.45     4.07     3.48     0  12:17        4.06
  E1196                JUNCTION     3.73     4.24     3.37     0  12:17        4.24
  E1198                JUNCTION     0.02     0.08     3.45     0  12:06        0.08
  E1199                JUNCTION     3.65     4.32     3.54     0  12:17        4.31
  E12153               JUNCTION     0.35     2.02     5.10     0  12:09        2.02
  E12154               JUNCTION     0.09     0.87     5.11     0  12:09        0.87
  E12155               JUNCTION     0.08     0.42     5.13     0  12:10        0.42
  E12156               JUNCTION     0.04     0.18     6.14     0  12:06        0.18
  E12157               JUNCTION     0.28     1.80     5.27     0  12:09        1.79
  E12158               JUNCTION     0.13     0.26     6.06     0  12:06        0.26
  E12159               JUNCTION     0.32     1.79     5.39     0  12:09        1.77
  E12160               JUNCTION     0.34     0.93     6.08     0  12:06        0.92
  E12161               JUNCTION     0.10     0.35     6.95     0  12:06        0.35
  E12162               JUNCTION     0.38     1.60     5.65     0  12:08        1.55
  E12163               JUNCTION     0.60     2.10     5.99     0  12:08        2.01
  E12164               JUNCTION     0.11     0.37     7.26     0  12:06        0.36
  E12165               JUNCTION     2.34     4.35     8.54     0  12:05        4.33
  E12166               JUNCTION     1.96     4.20     8.82     0  12:05        4.17
  E12167               JUNCTION     2.06     4.41     8.93     0  12:05        4.39
  E12168               JUNCTION     1.74     4.08     8.95     0  12:05        4.06
  E12169               JUNCTION     2.05     4.45     8.98     0  12:05        4.45
  E12170               JUNCTION     0.50     2.55     9.02     0  12:07        2.55
  E12189               JUNCTION     2.76     5.58     6.64     0  12:30        5.58
  E12190               JUNCTION     1.27     4.84     7.67     0  13:08        4.84
  E12191               JUNCTION     1.14     5.01     8.84     0  13:15        5.01
  E12192               JUNCTION     0.96     4.80     9.09     0  13:12        4.80
  E12193               JUNCTION     0.96     4.65     9.39     0  13:03        4.65
  E12194               JUNCTION     0.62     3.81     9.42     0  13:03        3.81
  E12195               JUNCTION     2.79     5.70     6.81     0  12:14        5.70
  E12196               JUNCTION     1.46     4.42     6.88     0  12:17        4.40
  E12197               JUNCTION     2.75     5.91     7.17     0  12:25        5.91
  E12198               JUNCTION     1.37     4.67     7.36     0  12:26        4.67
  E12199               JUNCTION     2.75     5.97     7.28     0  12:25        5.96
  E12200               JUNCTION     1.51     4.77     7.35     0  12:25        4.77
  E12201               JUNCTION     0.99     4.05     7.40     0  12:24        4.05
  E12202               JUNCTION     2.73     5.94     7.36     0  12:09        5.94
  E12204               JUNCTION     2.89     6.86     8.29     0  12:59        6.86
  E12205               JUNCTION     2.76     7.70     9.47     0  12:59        7.70
  E12206               JUNCTION     2.69     8.05     9.98     0  13:01        8.05
  E12207               JUNCTION     2.19     7.82    10.33     0  13:05        7.82
  E12208               JUNCTION     1.08     5.81    10.34     0  13:06        5.81
  F11107               JUNCTION     0.25     0.88     6.23     0  12:06        0.84
  F11108               JUNCTION     0.25     1.11     6.98     0  12:06        1.08
  F11109               JUNCTION     0.43     1.89     7.71     0  12:06        1.82
  F11110               JUNCTION     0.17     1.60     7.80     0  12:06        1.52
  F1142                JUNCTION     4.82     4.91     2.92     0  12:16        4.91
  F1143                JUNCTION     4.31     9.52     8.04     0  00:01        4.45
  F1144                JUNCTION     3.16     5.20     4.88     0  00:02        3.45
  F1145                JUNCTION     2.65     3.14     3.34     0  12:21        3.14
  F1146                JUNCTION     2.15     2.73     3.44     0  12:20        2.73
  F1148                JUNCTION     2.03     2.58     3.41     0  12:23        2.58
  F1149                JUNCTION     1.25     1.81     3.42     0  12:23        1.80
  F1150                JUNCTION     0.94     1.50     3.42     0  12:22        1.50
  F1154                JUNCTION     0.50     1.20     3.57     0  12:16        1.20
  F1158                JUNCTION     1.38     2.22     3.70     0  12:06        2.18
  F1159                JUNCTION     0.68     1.54     3.72     0  12:06        1.51
  F1161                JUNCTION     1.85     2.78     3.78     0  00:07        2.35
  F1162                JUNCTION     0.21     1.13     5.68     0  12:06        1.11
  F1163                JUNCTION     3.46     6.15     7.06     0  11:58        6.06
  F1164                JUNCTION     0.93     3.32     7.14     0  11:58        3.28
  F1165                JUNCTION     1.07     3.50     7.20     0  12:09        3.50
  F1166                JUNCTION     0.97     2.76     7.24     0  12:10        2.76
  F1167                JUNCTION     1.98     5.37     7.97     0  11:58        5.23
  F1168                JUNCTION     0.93     4.19     8.01     0  11:58        4.03
  F1169                JUNCTION     0.21     3.28     8.04     0  11:58        3.10
  F1170                JUNCTION     2.36     5.98     8.17     0  11:58        5.87
  F1171                JUNCTION     1.91     5.84     8.55     0  11:58        5.81
  F1172                JUNCTION     0.11     1.88     8.63     0  12:09        1.87
  F1173                JUNCTION     0.16     2.69     9.17     0  12:10        2.69
  JCT-12               JUNCTION     3.66     4.38     3.60     0  12:17        4.38
  JCT-14               JUNCTION     3.72     4.34     3.49     0  12:17        4.34
  JCT-16               JUNCTION     3.71     4.29     3.44     0  12:17        4.29
  JCT-18               JUNCTION     5.03     5.46     3.28     0  12:16        5.46
  JCT-20               JUNCTION     5.03     5.41     3.23     0  12:16        5.41
  JCT-22               JUNCTION     4.93     5.25     3.16     0  12:16        5.25
  JCT-24               JUNCTION     4.93     5.20     3.11     0  12:16        5.20
  JCT-26               JUNCTION     2.92     3.51     3.43     0  00:05        3.19
  JCT-30               JUNCTION     3.59     8.59     7.86     0  00:04        4.19
  JCT-32               JUNCTION     3.63     6.96     6.19     0  00:04        4.23
  JCT-34               JUNCTION     3.84     6.81     5.83     0  00:03        4.44
  JCT-36               JUNCTION     2.09     3.15     3.92     0  00:05        2.88
  JCT-38               JUNCTION     4.00     5.09     3.92     0  00:02        4.22
  JCT-40               JUNCTION     1.66     3.61     4.78     0  00:02        1.88
  JCT-42               JUNCTION     3.62     4.52     3.81     0  12:17        4.52
  JCT-44               JUNCTION     0.15     1.23     5.54     0  12:08        1.15
  OUTFALL              OUTFALL      4.81     4.81     2.82     0  00:00        4.81
  CELL-1               STORAGE      3.83     5.50     3.00     0  13:07        5.50
  CELL-2               STORAGE      4.05     5.50     3.00     0  13:07        5.50
  CELL-3               STORAGE      4.37     5.50     3.00     0  12:08        5.50
  
  
  *******************
  Node Inflow Summary
  *******************
  
  -------------------------------------------------------------------------------------------------
                                  Maximum  Maximum                  Lateral       Total        Flow
                                  Lateral    Total  Time of Max      Inflow      Inflow     Balance
                                   Inflow   Inflow   Occurrence      Volume      Volume       Error
  Node                 Type           CFS      CFS  days hr:min    10^6 gal    10^6 gal     Percent
  -------------------------------------------------------------------------------------------------
  CELL-3_MH            JUNCTION      0.00     3.84     0  12:50           0       0.584       0.325
  E11100               JUNCTION      0.60     6.72     0  12:09      0.0198       0.449       0.533
  E11101               JUNCTION      0.00     6.34     0  12:11           0       0.426       1.151
  E11102               JUNCTION      2.71     2.71     0  12:06       0.131       0.133       0.182
  E11104               JUNCTION      0.14     0.51     0  11:55     0.00434      0.0149       0.189
  E11106               JUNCTION      0.28     0.28     0  12:00      0.0102      0.0102       0.000
  E11113               JUNCTION      0.00    57.62     0  12:17           0        8.96       0.366
  E11114               JUNCTION      0.00    57.61     0  12:17           0        8.92       0.419
  E11115               JUNCTION      0.68     3.94     0  12:06      0.0475       0.214       1.382
  E11116               JUNCTION      0.00     3.26     0  12:06           0       0.163       0.745
  E11117               JUNCTION      3.27     3.27     0  12:06        0.16       0.161       0.238
  E11119               JUNCTION      0.00    55.07     0  12:18           0        8.67       0.417
  E11120               JUNCTION      1.06     3.50     0  12:06      0.0675       0.216       0.505
  E11121               JUNCTION      2.44     2.44     0  12:06       0.147       0.147       0.194
  E11122               JUNCTION      0.00    52.72     0  12:24           0        8.41       0.403
  E11123               JUNCTION      0.00     6.67     0  12:06           0        1.13       0.071
  E11124               JUNCTION      1.37     6.67     0  12:06      0.0625        1.13       0.088
  E11125               JUNCTION      0.16     5.92     0  13:12     0.00542        1.07       0.121
  E11126               JUNCTION      0.15     5.18     0  12:58     0.00559       0.902       0.021
  E11127               JUNCTION      1.63     6.01     0  12:25       0.108       0.897       0.072
  E11128               JUNCTION      7.72     7.72     0  12:06       0.789       0.789       0.014
  E11129               JUNCTION      1.84     2.17     0  12:06       0.152       0.166       0.019
  E11130               JUNCTION      0.33     0.51     0  11:52      0.0135      0.0138      -0.066
  E11131               JUNCTION      0.00    46.54     0  00:19           0         7.2       0.489
  E11132               JUNCTION      1.83     1.83     0  12:06       0.106       0.106       0.483
  E11133               JUNCTION      0.00    45.10     0  12:16           0        7.05       0.498
  E11134               JUNCTION      1.88     1.88     0  12:06       0.106       0.106       0.246
  E11135               JUNCTION      0.00    43.82     0  12:16           0         6.9       0.544
  E11136               JUNCTION      1.22     3.22     0  12:06       0.143       0.371       0.466
  E11137               JUNCTION      2.00     2.00     0  12:06       0.226       0.227       0.293
  E11139               JUNCTION      0.00    40.79     0  12:16           0        6.48       0.765
  E11140               JUNCTION      0.00    40.89     0  12:15           0        6.42       0.750
  E11141               JUNCTION      1.93     4.86     0  12:06       0.298       0.561       0.223
  E11142               JUNCTION      2.94     2.94     0  12:06       0.263       0.263       0.122
  E11143               JUNCTION      0.00    36.78     0  12:06           0        5.62       0.560
  E11144               JUNCTION      1.14     4.50     0  12:05      0.0522       0.257       0.206
  E11145               JUNCTION      0.00    17.75     0  12:05           0        2.83       0.391
  E11146               JUNCTION      2.27     2.27     0  12:06       0.108       0.108       0.020
  E11147               JUNCTION      0.00    17.76     0  12:05           0        2.76       0.344
  E11148               JUNCTION      0.29     1.28     0  12:06     0.00786      0.0674       1.406
  E11149               JUNCTION      1.08     1.08     0  12:06      0.0576      0.0576       0.043
  E11150               JUNCTION      0.00    16.53     0  12:05           0        2.68       0.392
  E11151               JUNCTION      1.68     1.68     0  12:06      0.0894      0.0894       0.000
  E11152               JUNCTION      0.00    15.12     0  12:12           0        2.58       0.584
  E11171               JUNCTION      0.99     1.94     0  12:06      0.0603       0.111       0.889
  E11172               JUNCTION      0.58     0.95     0  12:06       0.033       0.049       0.550
  E11173               JUNCTION      0.37     0.37     0  12:06      0.0146      0.0149       0.361
  E11174               JUNCTION      0.00    14.78     0  12:30           0        2.53       0.502
  E11175               JUNCTION      0.61    14.78     0  12:30      0.0255        2.52       0.323
  E11176               JUNCTION      1.19    14.01     0  12:04      0.0462        2.33       0.214
  E11177               JUNCTION      0.40     0.74     0  00:38      0.0212      0.0223       1.983
  E11178               JUNCTION      1.45    12.48     0  12:04      0.0686        2.26       0.553
  E11179               JUNCTION      0.38    18.88     0  12:41       0.013         4.1       0.447
  E11180               JUNCTION      1.69     1.69     0  12:06      0.0922      0.0925       0.067
  E11181               JUNCTION      0.00    18.08     0  12:42           0        3.96       0.114
  E11182               JUNCTION      1.40     1.40     0  12:06      0.0866      0.0869       0.044
  E11183               JUNCTION      0.00    17.54     0  13:00           0        3.87       0.131
  E11184               JUNCTION      4.28     4.28     0  12:06       0.308       0.308       0.017
  E11185               JUNCTION      0.00    15.85     0  13:44           0        3.57       0.099
  E11186               JUNCTION      0.31     2.26     0  12:03      0.0105      0.0234       1.277
  E11187               JUNCTION      0.00    15.64     0  14:07           0        3.54       0.107
  E11188               JUNCTION      1.34     2.35     0  12:02      0.0604       0.066       0.842
  E11210               JUNCTION      0.00    37.13     0  12:06           0        5.74       0.631
  E11211               JUNCTION      1.77     1.77     0  12:06      0.0738      0.0738       0.396
  E11212               JUNCTION      0.00    36.80     0  12:06           0        5.81       0.626
  E11213               JUNCTION      0.62     0.62     0  12:06      0.0257      0.0258       2.919
  E11214               JUNCTION      0.00     0.01     0  11:54           0    0.000296     285.520
  E11215               JUNCTION      1.50     6.43     0  12:06      0.0681       0.576       0.447
  E11216               JUNCTION      1.93     4.97     0  12:06         0.2       0.509       0.223
  E11217               JUNCTION      3.04     3.04     0  12:06       0.309       0.309       0.161
  E11441               JUNCTION      0.91    14.61     0  12:05      0.0414        2.49       0.218
  E11442               JUNCTION      1.75     2.90     0  12:03       0.104       0.114       0.380
  E11443               JUNCTION      7.85     7.85     0  12:06       0.559       0.613       0.152
  E11444               JUNCTION      0.75     2.34     0  12:06       0.031      0.0548       0.740
  E11446               JUNCTION      0.00     4.52     0  11:57           0       0.472       0.494
  E11447               JUNCTION      4.20     4.20     0  12:06       0.455       0.455       0.197
  E1156                JUNCTION      0.00   246.82     0  00:01           0        12.1       0.608
  E1157                JUNCTION      0.00    11.62     0  12:06           0       0.693       0.469
  E1160                JUNCTION      0.26     2.86     0  00:07      0.0139      0.0909       1.050
  E1175                JUNCTION      0.00    44.23     0  00:03           0       0.982       0.976
  E1176                JUNCTION      0.00    39.77     0  00:03           0       0.976       0.615
  E1177                JUNCTION      2.39     9.35     0  00:03       0.151       0.154       0.349
  E1178                JUNCTION      0.00    29.24     0  00:03           0       0.811       0.504
  E1179                JUNCTION      0.20    27.72     0  00:04     0.00824       0.765       0.537
  E1180                JUNCTION      0.39     6.54     0  00:05      0.0152      0.0415       0.477
  E1181                JUNCTION      0.35    12.45     0  00:05      0.0213       0.752       0.836
  E1182                JUNCTION      1.31     8.95     0  12:06      0.0812       0.722       0.777
  E1183                JUNCTION      2.73     2.73     0  12:06       0.149        0.15       0.080
  E1184                JUNCTION      0.00     4.95     0  12:17           0       0.482       0.046
  E1185                JUNCTION      3.56     3.56     0  12:06       0.335       0.335       0.037
  E1186                JUNCTION      1.72     1.72     0  12:06       0.148       0.148       0.043
  E1189                JUNCTION      0.00   121.92     0  00:03           0          10       0.601
  E1193                JUNCTION      0.85     7.02     0  00:07      0.0415       0.281       0.909
  E1194                JUNCTION      3.49     4.66     0  00:07       0.214       0.232       0.460
  E1196                JUNCTION      0.00    82.71     0  00:07           0         9.7       0.506
  E1198                JUNCTION      0.38     0.38     0  12:06       0.014       0.014       0.092
  E1199                JUNCTION      0.00    72.25     0  00:08           0        9.08       0.730
  E12153               JUNCTION      0.00    10.80     0  12:06           0       0.635       0.039
  E12154               JUNCTION      1.22     1.22     0  12:06      0.0589      0.0589       0.193
  E12155               JUNCTION      0.22     0.90     0  12:06     0.00883      0.0374       0.151
  E12156               JUNCTION      0.68     0.68     0  12:06      0.0285      0.0285       0.042
  E12157               JUNCTION      0.00     9.23     0  12:06           0       0.539       0.056
  E12158               JUNCTION      0.89     0.89     0  12:06      0.0433      0.0433       0.039
  E12159               JUNCTION      0.24     8.47     0  12:06     0.00791       0.496       0.014
  E12160               JUNCTION      0.98     1.71     0  12:06      0.0564      0.0875       0.075
  E12161               JUNCTION      0.73     0.73     0  12:06      0.0311      0.0311       0.056
  E12162               JUNCTION      0.81     6.64     0  12:06      0.0328       0.401       0.126
  E12163               JUNCTION      0.00     5.85     0  12:06           0       0.369       0.256
  E12164               JUNCTION      2.07     5.85     0  12:06       0.145        0.37       0.039
  E12165               JUNCTION      0.00     3.78     0  12:06           0       0.228       1.150
  E12166               JUNCTION      0.00     3.78     0  12:06           0       0.229       0.792
  E12167               JUNCTION      2.18     3.78     0  12:05        0.13        0.23       0.659
  E12168               JUNCTION      0.00     1.75     0  12:08           0       0.102       1.566
  E12169               JUNCTION      0.00     1.75     0  12:08           0       0.103       1.605
  E12170               JUNCTION      1.72     1.72     0  12:06       0.104       0.104       0.346
  E12189               JUNCTION      0.00    15.34     0  14:59           0        3.47       0.124
  E12190               JUNCTION      0.00     4.06     0  13:40           0       0.717       0.081
  E12191               JUNCTION      0.00     4.29     0  12:25           0       0.717       0.064
  E12192               JUNCTION      1.15     5.15     0  12:13      0.0642       0.717      -0.003
  E12193               JUNCTION      4.41     5.52     0  12:04       0.423       0.654       0.067
  E12194               JUNCTION      2.46     2.46     0  12:06        0.23       0.231       0.011
  E12195               JUNCTION      0.00    13.08     0  12:20           0         2.8       0.159
  E12196               JUNCTION      1.99     2.09     0  12:00       0.114       0.117       0.561
  E12197               JUNCTION      0.00    11.87     0  15:27           0        2.67       0.167
  E12198               JUNCTION      4.32     4.32     0  12:06       0.513       0.514       0.093
  E12199               JUNCTION      0.00     9.88     0  15:27           0        2.15       0.191
  E12200               JUNCTION      1.73     3.63     0  11:59       0.128       0.365       0.147
  E12201               JUNCTION      3.59     3.59     0  12:06       0.236       0.236       0.015
  E12202               JUNCTION      0.00    12.61     0  12:59           0        2.15       0.159
  E12204               JUNCTION      0.00    12.61     0  12:59           0        2.15       0.078
  E12205               JUNCTION      5.95    12.79     0  12:43       0.664        2.14       0.078
  E12206               JUNCTION      7.52     8.83     0  12:36        0.73        1.48       0.094
  E12207               JUNCTION      6.54     6.54     0  12:06       0.618       0.767       0.129
  E12208               JUNCTION      1.74     3.57     0  12:07       0.126       0.148      -0.027
  F11107               JUNCTION      0.00     4.04     0  12:06           0       0.273       0.048
  F11108               JUNCTION      0.57     4.05     0  12:06      0.0394       0.273       0.033
  F11109               JUNCTION      2.18     3.48     0  12:06       0.129       0.233       0.062
  F11110               JUNCTION      1.30     1.30     0  12:06       0.105       0.105       0.021
  F1142                JUNCTION      0.00   279.22     0  00:00           0        12.7       0.533
  F1143                JUNCTION      0.00    28.21     0  00:01           0       0.547       0.914
  F1144                JUNCTION      3.19    16.37     0  00:02        0.16       0.526       0.605
  F1145                JUNCTION      0.00     9.74     0  00:02           0       0.363       0.699
  F1146                JUNCTION      2.21     3.94     0  00:03       0.162       0.179       0.151
  F1148                JUNCTION      0.00     2.77     0  11:59           0       0.179       1.578
  F1149                JUNCTION      0.00     2.84     0  11:59           0       0.177       1.386
  F1150                JUNCTION      0.78     1.05     0  12:06      0.0332      0.0348       0.000
  F1154                JUNCTION      2.82     2.82     0  12:06       0.138       0.139       0.101
  F1158                JUNCTION      0.30     3.07     0  00:05       0.015      0.0658       1.909
  F1159                JUNCTION      1.05     1.05     0  12:06      0.0467      0.0482       0.757
  F1161                JUNCTION      1.81     1.81     0  12:06      0.0751      0.0758       0.774
  F1162                JUNCTION      1.09    10.39     0  12:06       0.067       0.623       0.045
  F1163                JUNCTION      0.00     9.30     0  12:06           0       0.565       1.392
  F1164                JUNCTION      1.58     3.70     0  12:21      0.0798       0.223       0.336
  F1165                JUNCTION      1.79     2.82     0  12:21      0.0921       0.143       0.440
  F1166                JUNCTION      1.15     1.15     0  12:06      0.0514      0.0514       0.185
  F1167                JUNCTION      0.00     5.70     0  12:06           0       0.347       1.418
  F1168                JUNCTION      0.34     0.34     0  12:00      0.0109      0.0111       1.961
  F1169                JUNCTION      1.40     1.40     0  12:06      0.0797      0.0797       0.021
  F1170                JUNCTION      0.27     4.21     0  12:16     0.00906       0.257       0.555
  F1171                JUNCTION      0.00     4.08     0  12:16           0        0.25       0.654
  F1172                JUNCTION      1.46     1.46     0  12:06      0.0699      0.0699       0.043
  F1173                JUNCTION      3.32     3.32     0  12:06        0.18        0.18       0.016
  JCT-12               JUNCTION      0.00    61.52     0  00:09           0        9.01       0.497
  JCT-14               JUNCTION      0.00    76.70     0  00:08           0         9.6       0.620
  JCT-16               JUNCTION      0.00    77.49     0  00:09           0        9.63       0.381
  JCT-18               JUNCTION      0.00   133.50     0  00:03           0        10.1       0.443
  JCT-20               JUNCTION      0.00   143.54     0  00:02           0        10.2       0.589
  JCT-22               JUNCTION      0.00   174.45     0  00:02           0        10.3       0.555
  JCT-24               JUNCTION      0.00   216.87     0  00:01           0        11.1       0.471
  JCT-26               JUNCTION      0.04     4.92     0  00:04     0.00108     0.00468      97.736
  JCT-30               JUNCTION      0.06     5.59     0  00:04     0.00173     0.00265      16.143
  JCT-32               JUNCTION      0.11     6.78     0  00:04     0.00346     0.00797      10.206
  JCT-34               JUNCTION      0.23     6.63     0  00:04     0.00973      0.0189       1.717
  JCT-36               JUNCTION      0.00     3.70     0  00:05           0      0.0673       1.648
  JCT-38               JUNCTION      0.11    20.26     0  00:01     0.00275       0.542       0.929
  JCT-40               JUNCTION      0.24     1.92     0  00:02     0.00763     0.00816       4.519
  JCT-42               JUNCTION      0.00    52.55     0  12:18           0        8.37       0.395
  JCT-44               JUNCTION      0.00     4.01     0  12:06           0       0.272       0.034
  OUTFALL              OUTFALL       0.00   279.22     0  00:00           0        12.7       0.000
  CELL-1               STORAGE       2.06    16.00     0  12:08       0.117        1.31       0.143
  CELL-2               STORAGE       1.88     8.08     0  12:08        0.07       0.787       0.217
  CELL-3               STORAGE       0.95     4.13     0  12:45      0.0417       0.657       0.159
  
  
  **********************
  Node Surcharge Summary
  **********************
  
  Surcharging occurs when water rises above the top of the highest conduit.
  ---------------------------------------------------------------------
                                               Max. Height   Min. Depth
                                   Hours       Above Crown    Below Rim
  Node                 Type      Surcharged           Feet         Feet
  ---------------------------------------------------------------------
  E11100               JUNCTION       23.18          3.184        0.066
  E11101               JUNCTION       23.09          2.260        0.000
  E11102               JUNCTION        1.40          1.555        0.000
  E11104               JUNCTION        0.49          0.830        0.340
  E11115               JUNCTION       23.50          1.306        0.514
  E11116               JUNCTION       23.53          1.455        0.545
  E11117               JUNCTION       23.60          1.800        0.420
  E11120               JUNCTION        0.93          0.428        1.612
  E11121               JUNCTION        1.06          0.576        1.514
  E11123               JUNCTION        3.51          0.556        1.264
  E11124               JUNCTION        3.86          0.956        1.154
  E11125               JUNCTION        3.90          1.396        0.684
  E11126               JUNCTION        3.95          2.615        0.000
  E11127               JUNCTION        8.58          4.099        0.000
  E11128               JUNCTION        3.87          4.138        0.000
  E11129               JUNCTION        3.23          0.710        0.540
  E11130               JUNCTION        2.40          0.383        0.867
  E11132               JUNCTION       19.27          1.623        0.000
  E11134               JUNCTION        0.61          0.307        0.833
  E11136               JUNCTION       23.42          1.394        0.706
  E11137               JUNCTION       23.58          2.234        0.006
  E11141               JUNCTION        1.54          0.519        1.921
  E11142               JUNCTION        5.26          0.983        1.807
  E11145               JUNCTION       23.36          1.364        1.006
  E11146               JUNCTION        0.50          0.248        1.122
  E11147               JUNCTION        3.70          1.077        2.603
  E11148               JUNCTION        3.93          1.123        2.657
  E11150               JUNCTION        3.60          1.131        2.589
  E11152               JUNCTION        0.89          0.546        2.564
  E11171               JUNCTION       23.04          1.239        0.511
  E11172               JUNCTION        0.88          0.397        0.573
  E11173               JUNCTION        0.88          0.399        0.891
  E11174               JUNCTION        4.90          1.183        2.937
  E11175               JUNCTION        3.35          0.967        2.773
  E11177               JUNCTION        6.96          1.533        1.387
  E11178               JUNCTION        6.99          1.618        0.212
  E11179               JUNCTION        1.83          0.836        0.000
  E11180               JUNCTION        1.27          0.680        0.630
  E11181               JUNCTION        6.24          1.796        0.294
  E11182               JUNCTION        3.76          1.239        0.311
  E11183               JUNCTION        5.07          1.862        0.098
  E11184               JUNCTION        1.28          0.715        0.635
  E11185               JUNCTION       22.52          2.685        0.000
  E11186               JUNCTION        4.70          1.699        0.000
  E11187               JUNCTION       16.40          3.047        0.813
  E11188               JUNCTION        6.09          2.494        0.000
  E11211               JUNCTION       19.96          0.959        0.000
  E11213               JUNCTION        1.78          0.346        1.354
  E11214               JUNCTION        0.68          0.176        1.584
  E11215               JUNCTION       11.30          1.418        0.000
  E11216               JUNCTION       11.07          0.587        1.793
  E11217               JUNCTION       12.04          0.946        1.594
  E11441               JUNCTION        0.39          0.102        0.000
  E11442               JUNCTION       23.24          1.792        0.000
  E11443               JUNCTION       19.90          5.006        0.000
  E11444               JUNCTION       19.74          4.323        0.000
  E11446               JUNCTION       12.68          2.450        0.000
  E11447               JUNCTION       12.36          1.729        0.000
  E1156                JUNCTION        1.16          0.130        1.110
  E1157                JUNCTION       23.91          1.826        0.574
  E1160                JUNCTION       23.88          1.223        0.867
  E1175                JUNCTION       23.95          9.274        0.000
  E1176                JUNCTION       23.94          3.972        0.000
  E1177                JUNCTION       23.94          3.064        0.000
  E1178                JUNCTION       23.93          3.415        0.000
  E1179                JUNCTION       23.93          4.120        0.000
  E1180                JUNCTION       23.93          3.379        0.000
  E1181                JUNCTION       23.85          1.457        1.423
  E1182                JUNCTION        1.63          1.496        0.684
  E1183                JUNCTION        1.09          1.587        0.973
  E1184                JUNCTION        0.72          1.910        0.040
  E1185                JUNCTION        0.84          2.326        0.000
  E1186                JUNCTION        0.58          1.574        0.616
  E1189                JUNCTION       20.70          0.504        0.646
  E1193                JUNCTION       23.87          1.544        0.000
  E1194                JUNCTION       23.88          2.567        0.000
  E12163               JUNCTION        0.31          0.431        3.323
  E12165               JUNCTION       16.36          2.848        1.322
  E12166               JUNCTION       15.90          2.698        0.292
  E12167               JUNCTION       15.90          2.810        0.030
  E12168               JUNCTION       15.79          2.579        0.000
  E12169               JUNCTION       16.12          3.135        0.000
  E12170               JUNCTION        0.63          1.264        0.000
  E12189               JUNCTION       12.98          3.585        0.000
  E12190               JUNCTION        5.05          3.586        0.000
  E12191               JUNCTION        4.67          3.740        0.000
  E12192               JUNCTION        4.32          3.502        0.000
  E12193               JUNCTION        4.02          3.400        0.000
  E12194               JUNCTION        3.34          2.557        0.000
  E12195               JUNCTION       12.88          3.700        0.000
  E12196               JUNCTION        6.22          3.171        0.000
  E12197               JUNCTION       10.78          3.908        0.000
  E12198               JUNCTION        5.72          3.423        0.000
  E12199               JUNCTION        6.31          3.445        0.000
  E12200               JUNCTION        4.92          3.060        0.000
  E12201               JUNCTION        4.69          2.547        0.000
  E12202               JUNCTION        9.56          3.940        0.000
  E12204               JUNCTION       13.73          5.279        0.000
  E12205               JUNCTION       12.82          6.199        0.000
  E12206               JUNCTION       11.04          6.549        0.000
  E12207               JUNCTION        8.43          6.575        0.000
  E12208               JUNCTION        4.68          4.564        0.000
  F11109               JUNCTION        0.72          0.892        0.938
  F11110               JUNCTION        0.32          0.601        0.929
  F1143                JUNCTION       23.98          7.523        0.000
  F1144                JUNCTION       23.96          3.200        0.000
  F1145                JUNCTION       23.95          1.545        2.505
  F1146                JUNCTION       23.95          1.732        0.000
  F1148                JUNCTION        8.20          0.577        0.000
  F1150                JUNCTION        1.06          0.241        0.000
  F1154                JUNCTION        0.85          0.203        0.000
  F1158                JUNCTION       23.46          0.922        0.908
  F1159                JUNCTION        0.42          0.291        1.019
  F1161                JUNCTION       23.88          1.530        1.330
  F1163                JUNCTION       16.83          2.965        0.000
  F1164                JUNCTION        1.22          1.651        0.669
  F1165                JUNCTION        2.02          1.984        0.056
  F1166                JUNCTION        0.47          0.815        0.000
  F1167                JUNCTION       13.73          3.235        0.715
  F1168                JUNCTION        7.89          3.192        0.858
  F1169                JUNCTION        0.64          1.784        1.216
  F1170                JUNCTION       17.18          4.439        0.361
  F1171                JUNCTION       16.93          4.575        0.000
  F1172                JUNCTION        0.37          0.855        0.000
  F1173                JUNCTION        0.45          1.691        0.000
  JCT-18               JUNCTION       20.72          0.459        0.791
  JCT-20               JUNCTION       20.73          0.415        0.855
  JCT-22               JUNCTION        2.15          0.250        0.970
  JCT-24               JUNCTION        1.73          0.202        1.038
  JCT-26               JUNCTION       23.91          1.760        0.000
  JCT-30               JUNCTION       23.93          7.343        0.000
  JCT-32               JUNCTION       23.93          5.715        0.000
  JCT-34               JUNCTION       23.94          5.462        0.000
  JCT-36               JUNCTION       23.91          1.842        0.688
  JCT-38               JUNCTION       23.96          2.042        0.000
  JCT-40               JUNCTION       23.96          2.611        0.000
  
  
  *********************
  Node Flooding Summary
  *********************
  
  Flooding refers to all water that overflows a node, whether it ponds or not.
  --------------------------------------------------------------------------
                                                             Total   Maximum
                                 Maximum   Time of Max       Flood    Ponded
                        Hours       Rate    Occurrence      Volume     Depth
  Node                 Flooded       CFS   days hr:min    10^6 gal      Feet
  --------------------------------------------------------------------------
  E11102                  0.37      0.99      0  12:06       0.004     0.215
  E11126                  3.10      0.74      0  12:23       0.016     0.955
  E11127                  3.66      2.06      0  12:06       0.033     1.979
  E11128                  3.83      3.98      0  12:06       0.048     2.898
  E11132                  1.11      0.73      0  12:06       0.005     0.273
  E11179                  0.61      1.86      0  12:06       0.005     0.246
  E11185                  4.69      4.19      0  11:55       0.028     1.635
  E11186                  2.85      2.26      0  12:03       0.014     0.849
  E11188                  3.51      2.35      0  12:02       0.015     0.924
  E11211                  0.94      0.80      0  12:00       0.004     0.252
  E11215                 11.04      3.10      0  13:01       0.008     0.468
  E11441                  0.39      1.04      0  12:12       0.002     0.102
  E11442                  5.15      2.90      0  12:03       0.025     1.522
  E11443                 19.59      3.70      0  12:06       0.048     2.796
  E11444                  5.79      2.34      0  12:06       0.034     2.063
  E11446                 12.40      4.52      0  11:57       0.028     1.600
  E11447                 12.04      2.38      0  12:00       0.009     0.479
  E1177                   3.06      8.80      0  00:03       0.012     0.614
  E1179                   1.12     23.76      0  00:04       0.012     0.550
  E1180                  23.93      6.54      0  00:05       0.031     1.579
  E1185                   0.24      0.37      0  12:06       0.001     0.036
  E1193                   1.15      1.22      0  12:01       0.005     0.324
  E1194                  23.87      3.81      0  00:08       0.029     1.427
  E12170                  0.07      0.12      0  12:06       0.000     0.004
  E12191                  3.10      0.88      0  12:14       0.014     0.800
  E12192                  3.18      1.07      0  12:05       0.015     0.892
  E12193                  3.16      2.02      0  12:03       0.017     1.010
  E12194                  3.34      2.32      0  12:00       0.020     1.207
  E12195                  1.00      3.45      0  12:21       0.050     0.000
  E12196                  3.93      2.09      0  12:00       0.016     0.961
  E12198                  3.95      2.29      0  12:06       0.018     1.073
  E12200                  3.84      2.20      0  12:07       0.014     0.810
  E12201                  3.79      2.09      0  12:06       0.013     0.797
  E12202                  2.86      7.85      0  12:42       0.368     0.000
  E12205                  4.36      3.60      0  12:06       0.041     2.429
  E12206                  4.60      3.85      0  12:06       0.051     3.009
  E12207                  4.65      3.75      0  12:06       0.055     3.245
  E12208                  4.55      3.57      0  12:07       0.052     3.114
  F1146                  23.95      3.88      0  00:03       0.027     1.732
  F1148                   8.13      1.54      0  11:58       0.010     0.577
  F1150                   1.03      1.04      0  12:06       0.004     0.241
  F1154                   0.85      0.81      0  12:06       0.003     0.203
  F1166                   0.42      0.94      0  12:02       0.004     0.225
  F1172                   0.31      0.34      0  12:06       0.001     0.045
  F1173                   0.36      0.72      0  12:06       0.002     0.131
  JCT-26                  0.02      3.76      0  00:04       0.001     0.010
  CELL-1                 10.87      4.25      0  13:12       0.423     0.000
  CELL-2                 10.88      2.98      0  13:12       0.327     0.000
  CELL-3                 11.85      3.99      0  13:07       0.445     0.000
  
  
  **********************
  Storage Volume Summary
  **********************
  
  ------------------------------------------------------------------------------------------------
                         Average    Avg   Evap  Exfil     Maximum    Max    Time of Max    Maximum
                          Volume   Pcnt   Pcnt   Pcnt      Volume   Pcnt     Occurrence    Outflow
  Storage Unit          1000 ftł   Full   Loss   Loss    1000 ftł   Full    days hr:min        CFS
  ------------------------------------------------------------------------------------------------
  CELL-1                  92.362   77.9    0.0    0.0     118.532  100.0       0  13:07       0.00
  CELL-2                  25.002   87.5    0.0    0.0      28.582  100.0       0  13:07       8.08
  CELL-3                   7.634   87.7    0.0    0.0       8.706  100.0       0  12:08       4.08
  
  
  ***********************
  Outfall Loading Summary
  ***********************
  
  -----------------------------------------------------------
                         Flow       Avg       Max       Total
                         Freq      Flow      Flow      Volume
  Outfall Node           Pcnt       CFS       CFS    10^6 gal
  -----------------------------------------------------------
  OUTFALL              100.00     21.65    279.22      12.709
  -----------------------------------------------------------
  System               100.00     21.65    279.22      12.709
  
  
  ********************
  Link Flow Summary
  ********************
  
  -----------------------------------------------------------------------------
                                 Maximum  Time of Max   Maximum    Max/    Max/
                                  |Flow|   Occurrence   |Veloc|    Full    Full
  Link                 Type          CFS  days hr:min    ft/sec    Flow   Depth
  -----------------------------------------------------------------------------
  CDT-101              CONDUIT      6.73     0  12:09      6.08    0.25    0.78
  CDT-105              CONDUIT      0.37     0  12:06      0.56    0.01    0.53
  CDT-109              CONDUIT      4.66     0  00:07      2.99    0.37    1.00
  CDT-11               CONDUIT     40.76     0  12:16      4.20    0.33    0.95
  CDT-111              CONDUIT      7.02     0  00:07      6.30    0.51    1.00
  CDT-113              CONDUIT      1.72     0  12:10      2.19    0.75    1.00
  CDT-115              CONDUIT      3.84     0  12:50      6.27    0.43    0.74
  CDT-119              CONDUIT      1.81     0  12:06      1.53    0.34    1.00
  CDT-121              CONDUIT      2.86     0  00:07      3.30    0.60    1.00
  CDT-123              CONDUIT      4.92     0  00:04      6.04    0.12    1.00
  CDT-125              CONDUIT     10.33     0  12:07      6.29    0.60    0.88
  CDT-127              CONDUIT     11.62     0  12:06      5.32    0.48    1.00
  CDT-129              CONDUIT      1.05     0  12:06      1.29    0.12    1.00
  CDT-13               CONDUIT     43.79     0  12:16      4.57    0.29    0.93
  CDT-131              CONDUIT      3.07     0  00:05      3.79    0.35    1.00
  CDT-133              CONDUIT      3.70     0  00:05      3.01    4.36    1.00
  CDT-135              CONDUIT     12.45     0  00:05      4.63    0.48    1.00
  CDT-137              CONDUIT     27.72     0  00:04      8.90    7.03    1.00
  CDT-139              CONDUIT     29.24     0  00:03      9.36    1.10    1.00
  CDT-141              CONDUIT     39.77     0  00:03     12.66    2.30    1.00
  CDT-143              CONDUIT     44.23     0  00:03     18.32    0.38    1.00
  CDT-145              CONDUIT      6.54     0  00:05      6.52    2.77    1.00
  CDT-147              CONDUIT      9.35     0  00:03      8.34    2.04    1.00
  CDT-149              CONDUIT      5.59     0  00:04      5.60    2.21    1.00
  CDT-15               CONDUIT     45.07     0  12:16      4.36    0.38    0.93
  CDT-151              CONDUIT      6.78     0  00:04      5.55    1.92    1.00
  CDT-153              CONDUIT      6.63     0  00:04      6.12    0.92    1.00
  CDT-155              CONDUIT      2.77     0  11:59      1.47    0.08    0.95
  CDT-157              CONDUIT      2.41     0  00:03      1.93    0.24    1.00
  CDT-159              CONDUIT      9.74     0  00:02      6.29    1.58    1.00
  CDT-161              CONDUIT     16.37     0  00:02      5.65    0.71    1.00
  CDT-163              CONDUIT     20.26     0  00:01      7.24    1.03    1.00
  CDT-165              CONDUIT     28.21     0  00:01      9.37    0.58    1.00
  CDT-167              CONDUIT      1.92     0  00:02      3.01    0.53    1.00
  CDT-169              CONDUIT     52.72     0  12:24      4.28    0.91    0.90
  CDT-17               CONDUIT     46.54     0  00:19      4.18    0.40    0.91
  CDT-171              CONDUIT      3.92     0  12:07      3.62    0.31    0.99
  CDT-173              CONDUIT    279.22     0  00:00      8.42    3.79    0.97
  CDT-19               CONDUIT     52.90     0  12:24      4.21    0.26    0.89
  CDT-21               CONDUIT     55.26     0  12:24      3.97    0.58    0.89
  CDT-23               CONDUIT     57.62     0  12:17      4.87    0.77    0.89
  CDT-25               CONDUIT     57.80     0  12:23      5.00    0.46    0.88
  CDT-29               CONDUIT     61.52     0  00:09      4.22    5.10    0.87
  CDT-31               CONDUIT     72.25     0  00:08      4.89    0.08    0.87
  CDT-33               CONDUIT     76.70     0  00:08      5.01    0.34    0.86
  CDT-35               CONDUIT     77.49     0  00:09      4.93    0.86    0.85
  CDT-37               CONDUIT     82.71     0  00:07      3.80    0.17    0.92
  CDT-39               CONDUIT    121.92     0  00:03      6.55    1.69    1.00
  CDT-41               CONDUIT    133.50     0  00:03      6.78    1.28    1.00
  CDT-43               CONDUIT    143.54     0  00:02      7.50    1.24    1.00
  CDT-45               CONDUIT    174.45     0  00:02      7.47    4.56    1.00
  CDT-47               CONDUIT    216.87     0  00:01      8.78    0.95    1.00
  CDT-49               CONDUIT    246.82     0  00:01      8.85    2.27    0.99
  CDT-53               CONDUIT      2.00     0  12:06      3.04    0.21    1.00
  CDT-55               CONDUIT      3.22     0  12:06      1.82    0.21    1.00
  CDT-57               CONDUIT      1.89     0  12:06      3.02    0.41    0.83
  CDT-59               CONDUIT      1.23     0  12:25      1.89    0.16    0.81
  CDT-61               CONDUIT      5.05     0  12:36      6.44    0.78    1.00
  CDT-63               CONDUIT      5.15     0  12:59      6.56    1.46    1.00
  CDT-65               CONDUIT      5.11     0  13:40      6.51    1.08    1.00
  CDT-67               CONDUIT      5.92     0  13:12      3.35    1.89    1.00
  CDT-69               CONDUIT      6.67     0  12:06      3.78    0.98    1.00
  CDT-71               CONDUIT      6.67     0  12:06      5.67    1.53    0.92
  CDT-73               CONDUIT      2.44     0  12:06      1.99    0.50    1.00
  CDT-75               CONDUIT      3.51     0  12:06      2.40    0.41    0.82
  CDT-77               CONDUIT      3.26     0  12:06      2.66    1.79    1.00
  CDT-79               CONDUIT      3.26     0  12:06      2.34    0.47    1.00
  CDT-81               CONDUIT      3.93     0  12:05      2.23    0.08    1.00
  CDT-83               CONDUIT      3.04     0  12:06      4.17    1.49    1.00
  CDT-85               CONDUIT      4.95     0  12:06      5.02    0.60    1.00
  CDT-91               CONDUIT      3.96     0  12:16      2.52    0.37    1.00
  CDT-95               CONDUIT      2.68     0  12:18      2.50    0.24    1.00
  CDT-97               CONDUIT      0.42     0  12:00      0.39    0.04    1.00
  CDT-99               CONDUIT      6.34     0  12:11      3.59    0.66    1.00
  CELL-1_IN            CONDUIT      6.42     0  12:06      9.27    0.35    1.00
  CELL-2_IN            CONDUIT      3.99     0  12:17      2.26    0.24    1.00
  CELL-3_IN            CONDUIT      3.84     0  12:50      3.13    0.62    1.00
  E11104-E11106        CONDUIT      0.28     0  12:00      3.41    0.03    0.56
  E11129-E11125        CONDUIT      2.17     0  12:06      1.21    0.14    1.00
  E11130-E11129        CONDUIT      0.43     0  15:44      1.28    0.05    1.00
  E11140-E11139        CONDUIT     40.79     0  12:16      3.52    0.06    0.93
  E11141-E11140        CONDUIT      4.87     0  12:06      3.25    0.34    0.84
  E11142-E11141        CONDUIT      2.94     0  12:06      2.40    1.33    1.00
  E11143-E11210        CONDUIT     36.09     0  12:06      3.09    0.17    0.87
  E11144-E11143        CONDUIT      4.30     0  12:06      2.86    0.19    0.87
  E11144-E11145        CONDUIT      1.39     0  12:35      1.16    0.08    1.00
  E11145-E11143        CONDUIT     16.77     0  12:06      3.50    0.55    1.00
  E11146-E11144        CONDUIT      2.27     0  12:06      2.89    0.32    1.00
  E11147-E11145        CONDUIT     17.75     0  12:05      2.51    0.58    1.00
  E11148-E11147        CONDUIT      1.27     0  12:06      1.91    0.35    1.00
  E11149-E11148        CONDUIT      1.03     0  12:06      1.30    0.07    0.72
  E11150-E11147        CONDUIT     16.52     0  12:05      3.06    0.53    1.00
  E11150-E11151        CONDUIT      1.67     0  12:06      3.35    0.10    0.61
  E11152-E11150        CONDUIT     15.12     0  12:12      2.96    0.30    1.00
  E11171-E11143        CONDUIT      1.93     0  12:06      1.58    0.57    1.00
  E11172-E11171        CONDUIT      0.95     0  12:06      1.20    0.14    1.00
  E11173-E11172        CONDUIT      0.37     0  12:03      0.50    0.08    1.00
  E11174-E11143        CONDUIT     14.79     0  12:30      2.28    0.65    1.00
  E11175-E11174        CONDUIT     14.78     0  12:30      2.46    0.25    1.00
  E11176-E11441        CONDUIT     13.72     0  12:05      2.41    0.44    0.99
  E11177-E11176        CONDUIT      0.74     0  00:38      0.85    0.15    1.00
  E11178-E11176        CONDUIT     12.46     0  12:11      3.16    0.23    0.99
  E11179-E11152        CONDUIT      8.09     0  13:19      2.57    0.91    1.00
  E11179-E11178        CONDUIT     11.51     0  12:33      3.12    0.11    1.00
  E11180-E11179        CONDUIT      1.69     0  12:06      1.38    0.12    1.00
  E11181-E11179        CONDUIT     18.07     0  12:53      3.68    2.17    1.00
[...]
  E11174-E11143           1.00   0.01  0.00  0.00  0.99  0.00  0.00  0.00  0.00  0.00
  E11175-E11174           4.83   0.01  0.00  0.00  0.99  0.00  0.00  0.00  0.00  0.00
  E11176-E11441           1.30   0.02  0.00  0.00  0.98  0.00  0.00  0.00  0.00  0.00
  E11177-E11176           3.54   0.02  0.00  0.00  0.98  0.00  0.00  0.00  0.00  0.00
  E11178-E11176           1.00   0.02  0.00  0.00  0.98  0.00  0.00  0.00  0.00  0.00
  E11179-E11152           1.00   0.02  0.00  0.00  0.98  0.00  0.00  0.00  0.00  0.00
  E11179-E11178           6.92   0.02  0.00  0.00  0.98  0.00  0.00  0.00  0.00  0.00
  E11180-E11179           4.99   0.02  0.01  0.00  0.97  0.00  0.00  0.00  0.01  0.00
  E11181-E11179           4.39   0.02  0.00  0.00  0.98  0.00  0.00  0.00  0.00  0.00
  E11182-E11181           1.94   0.03  0.00  0.00  0.97  0.00  0.00  0.00  0.00  0.00
  E11183-E11181           2.97   0.02  0.00  0.00  0.98  0.00  0.00  0.00  0.00  0.00
  E11184-E11183           7.99   0.02  0.09  0.00  0.89  0.00  0.00  0.00  0.69  0.00
  E11185-E11183           5.22   0.02  0.00  0.00  0.98  0.00  0.00  0.00  0.00  0.00
  E11186-E11185           9.11   0.02  0.00  0.00  0.97  0.00  0.00  0.00  0.00  0.00
  E11187-E11185           2.85   0.02  0.00  0.00  0.98  0.00  0.00  0.00  0.00  0.00
  E11188-E11187           9.62   0.02  0.00  0.00  0.97  0.00  0.00  0.00  0.00  0.00
  E11210-E11212           8.89   0.01  0.00  0.00  0.99  0.00  0.00  0.00  0.00  0.00
  E11211-E11210           4.25   0.11  0.06  0.00  0.02  0.00  0.81  0.00  0.00  0.00
  E11212-E11140           1.63   0.01  0.00  0.00  0.99  0.00  0.00  0.00  0.00  0.00
  E11213-E11212          12.96   0.11  0.21  0.00  0.03  0.00  0.65  0.00  0.00  0.00
  E11214-E11213           2.54   0.11  0.05  0.00  0.84  0.00  0.00  0.00  0.00  0.00
  E11441-E11175           1.02   0.01  0.00  0.00  0.98  0.00  0.00  0.00  0.00  0.00
  E11442-E11441           1.00   0.02  0.00  0.00  0.98  0.00  0.00  0.00  0.00  0.00
  E1182-E1181             1.00   0.00  0.00  0.00  1.00  0.00  0.00  0.00  0.00  0.00
  E1183-E1182             3.47   0.00  0.00  0.00  0.99  0.00  0.00  0.00  0.00  0.00
  E1184-E1182             1.00   0.00  0.11  0.00  0.89  0.00  0.00  0.00  0.84  0.00
  E1185-E1184             8.18   0.11  0.00  0.00  0.05  0.00  0.00  0.84  0.00  0.00
  E1186-E1184             3.74   0.11  0.00  0.00  0.08  0.18  0.00  0.63  0.01  0.00
  E12153-E11152           1.00   0.02  0.10  0.00  0.88  0.00  0.00  0.00  0.81  0.00
  E12154-E12153          10.23   0.11  0.00  0.00  0.03  0.01  0.00  0.85  0.01  0.00
  E12155-E12153           3.59   0.11  0.00  0.00  0.01  0.00  0.00  0.88  0.00  0.00
  E12156-E12155           9.12   0.11  0.00  0.00  0.00  0.05  0.00  0.84  0.03  0.00
  E12157-E12153           2.94   0.11  0.00  0.00  0.89  0.00  0.00  0.00  0.34  0.00
  E12158-E12157          18.08   0.11  0.02  0.00  0.86  0.01  0.00  0.00  0.87  0.00
  E12159-E12157           8.32   0.11  0.00  0.00  0.89  0.00  0.00  0.00  0.04  0.00
  E12160-E12159           1.73   0.13  0.00  0.00  0.00  0.00  0.00  0.87  0.00  0.00
  E12161-E12160           9.05   0.12  0.00  0.00  0.00  0.00  0.00  0.88  0.00  0.00
  E12162-E12159           2.03   0.11  0.00  0.00  0.02  0.00  0.00  0.87  0.00  0.00
  E12163-E12162           1.00   0.11  0.00  0.00  0.89  0.00  0.00  0.00  0.06  0.00
  E12164-E12163          16.86   0.11  0.00  0.00  0.89  0.00  0.00  0.00  0.89  0.00
  E12165-E12164           1.00   0.11  0.00  0.00  0.89  0.00  0.00  0.00  0.24  0.00
  E12166-E12165           1.00   0.11  0.02  0.00  0.87  0.00  0.00  0.00  0.07  0.00
  E12167-E12166           2.35   0.13  0.00  0.00  0.87  0.00  0.00  0.00  0.00  0.00
  E12168-E12167           3.25   0.11  0.07  0.00  0.82  0.00  0.00  0.00  0.05  0.00
  E12169-E12168           6.11   0.13  0.05  0.00  0.82  0.00  0.00  0.00  0.00  0.00
  E12170-E12169           7.32   0.12  0.00  0.00  0.87  0.00  0.00  0.01  0.21  0.00
  E12189-E11187           1.00   0.02  0.00  0.00  0.98  0.00  0.00  0.00  0.00  0.00
  E12190-E12189           1.00   0.03  0.01  0.00  0.97  0.00  0.00  0.00  0.44  0.00
  E12191-E12190           1.00   0.03  0.09  0.00  0.88  0.00  0.00  0.00  0.23  0.00
  E12192-E12191           6.62   0.11  0.00  0.00  0.35  0.54  0.00  0.00  0.65  0.00
  E12193-E12192           2.56   0.11  0.00  0.00  0.20  0.00  0.00  0.69  0.00  0.00
  E12194-E12193          10.69   0.11  0.00  0.00  0.89  0.00  0.00  0.00  0.71  0.00
  E12195-E12189           6.60   0.02  0.00  0.00  0.98  0.00  0.00  0.00  0.00  0.00
  E12196-E12195          22.34   0.02  0.01  0.00  0.97  0.00  0.00  0.00  0.00  0.00
  E12197-E12195           1.92   0.02  0.00  0.00  0.97  0.00  0.00  0.00  0.00  0.00
  E12198-E12197          28.80   0.03  0.01  0.00  0.97  0.00  0.00  0.00  0.00  0.00
  E12199-E12197           6.64   0.03  0.00  0.00  0.97  0.00  0.00  0.00  0.00  0.00
  E12200-E12199          13.81   0.03  0.00  0.00  0.97  0.00  0.00  0.00  0.00  0.00
  E12201-E12200           3.16   0.06  0.05  0.00  0.60  0.06  0.00  0.23  0.28  0.00
  E12202-E12199           1.00   0.03  0.00  0.00  0.97  0.00  0.00  0.00  0.00  0.00
  E12204-E12202          13.26   0.03  0.00  0.00  0.97  0.00  0.00  0.00  0.00  0.00
  E12205-E12204           4.92   0.03  0.00  0.00  0.97  0.00  0.00  0.00  0.00  0.00
  E12206-E12205           5.48   0.03  0.00  0.00  0.97  0.00  0.00  0.00  0.00  0.00
  E12207-E12206           3.15   0.03  0.00  0.00  0.97  0.00  0.00  0.00  0.00  0.00
  E12208-E12207           7.62   0.03  0.08  0.00  0.89  0.00  0.00  0.00  0.67  0.00
  F11107-E11101           1.00   0.11  0.00  0.00  0.03  0.86  0.00  0.00  0.00  0.00
  F11108-F11107           1.00   0.11  0.00  0.00  0.89  0.00  0.00  0.00  0.00  0.00
  F11109-F11108           1.63   0.11  0.00  0.00  0.89  0.00  0.00  0.00  0.01  0.00
  F11110-F11109           3.29   0.11  0.00  0.00  0.89  0.00  0.00  0.00  0.71  0.00
  F1146-F1145             7.27   0.00  0.00  0.00  1.00  0.00  0.00  0.00  0.00  0.00
  F1149-F1150            16.40   0.00  0.00  0.00  1.00  0.00  0.00  0.00  0.00  0.00
  F1154-F1149             2.53   0.00  0.00  0.00  1.00  0.00  0.00  0.00  0.00  0.00
  F1163-F1162             1.00   0.11  0.00  0.00  0.89  0.00  0.00  0.00  0.20  0.00
  F1164-F1163             3.13   0.13  0.00  0.00  0.78  0.00  0.00  0.09  0.08  0.00
  F1165-F1164             3.81   0.13  0.03  0.00  0.70  0.00  0.14  0.00  0.00  0.00
  F1166-F1165             6.72   0.16  0.00  0.00  0.70  0.14  0.00  0.01  0.79  0.00
  F1167-F1163             1.00   0.11  0.00  0.00  0.89  0.00  0.00  0.00  0.10  0.00
  F1168-F1167             5.50   0.11  0.00  0.00  0.71  0.00  0.00  0.18  0.00  0.00
  F1169-F1167             7.47   0.11  0.00  0.00  0.78  0.00  0.00  0.11  0.46  0.00
  F1170-F1167             1.26   0.12  0.04  0.00  0.78  0.00  0.06  0.00  0.00  0.00
  F1171-F1170            14.13   0.11  0.00  0.00  0.89  0.00  0.00  0.00  0.11  0.00
  F1172-F1171             3.31   0.12  0.00  0.00  0.76  0.00  0.00  0.12  0.74  0.00
  F1173-F1171             1.94   0.11  0.00  0.00  0.78  0.11  0.00  0.00  0.85  0.00
  
  
  *************************
  Conduit Surcharge Summary
  *************************
  
  ----------------------------------------------------------------------------
                                                           Hours        Hours 
                         --------- Hours Full --------   Above Full   Capacity
  Conduit                Both Ends  Upstream  Dnstream   Normal Flow   Limited
  ----------------------------------------------------------------------------
  CDT-101                     0.01      0.01     23.18      0.01         0.01
  CDT-105                     0.01      0.01     21.31      0.01         0.01
  CDT-109                    23.88     23.88     23.89      0.01         0.01
  CDT-111                    20.64     20.64     23.87      0.01         0.01
  CDT-113                    19.74     19.74     19.90      0.01         0.01
  CDT-115                     0.01      0.01     19.60      0.01         0.01
  CDT-119                    23.88     23.88     23.88      0.01         0.01
  CDT-121                     2.15      2.15     23.88      0.01         0.01
  CDT-123                     1.72      1.72     23.91      0.01         0.01
  CDT-125                     0.01      0.01     21.33      0.01         0.01
  CDT-127                     1.72      1.72     23.91      0.01         0.01
  CDT-129                     0.42      0.42     23.46      0.01         0.01
  CDT-131                    23.60     23.60     23.91      0.01         0.01
  CDT-133                    23.91     23.91     23.91      0.35         2.29
  CDT-135                    23.85     23.85     23.93      0.01         0.01
  CDT-137                    23.93     23.93     23.94      1.38        12.95
  CDT-139                    23.94     23.94     23.94      0.01         0.01
  CDT-141                    23.94     23.95     23.94      0.02         0.03
  CDT-143                     1.16      1.16     23.95      0.01         0.01
  CDT-145                    23.93     23.93     23.93      0.09         0.11
  CDT-147                    23.94     23.94     23.94      0.01         0.03
  CDT-149                    23.93     23.93     23.93      0.01         0.04
  CDT-151                    23.93     23.93     23.94      0.01         0.01
  CDT-153                    23.94     23.94     23.94      0.01         0.03
  CDT-155                     0.01      0.01      8.19      0.01         0.01
  CDT-157                     8.19      8.19     23.95      0.01         0.01
  CDT-159                    23.95     23.95     23.96      0.01         0.01
  CDT-161                    23.96     23.96     23.97      0.01         0.01
  CDT-163                    23.97     23.97     23.98      0.01         0.01
  CDT-165                    23.98     23.98     23.99      0.01         0.01
  CDT-167                    23.95     23.95     23.96      0.01         0.01
  CDT-171                     0.01      0.01     21.09      0.01         0.01
  CDT-173                     0.01      0.01      0.01      1.01         0.01
  CDT-29                      0.01      0.01      0.01      9.38         0.01
  CDT-37                      0.01      0.01     20.64      0.01         0.01
  CDT-39                     20.60     20.64     20.62      0.14        12.80
  CDT-41                     20.60     20.62     20.66      0.02        12.77
  CDT-43                      2.15      2.15     20.66      0.02         0.01
  CDT-45                      1.72      2.15      1.72      2.75         1.72
  CDT-47                      1.16      1.16      1.72      0.01         0.01
  CDT-49                      0.01      0.01      1.16      0.11         0.01
  CDT-53                     23.48     23.48     23.58      0.01         0.01
  CDT-55                     23.42     23.42     23.69      0.01         0.01
  CDT-57                      0.01      0.01      0.61      0.01         0.01
  CDT-59                      0.01      0.01     19.23      0.01         0.01
  CDT-61                      3.87      3.87      8.58      0.01         0.94
  CDT-63                      3.95      3.95      8.58      3.64         0.01
  CDT-65                      3.95      3.95      6.48      1.91         3.55
  CDT-67                      3.87      3.90      3.87      3.93         3.87
  CDT-69                      3.51      3.51      3.86      0.01         0.01
  CDT-71                      0.01      0.01      4.49      3.77         0.01
  CDT-73                      1.06      1.06      1.67      0.01         0.01
  CDT-75                      0.01      0.01      0.93      0.01         0.01
  CDT-77                     23.60     23.60     23.61      0.42         0.82
  CDT-79                     23.50     23.50     23.53      0.01         0.01
  CDT-81                     23.50     23.50     23.79      0.01         0.01
  CDT-83                     11.11     11.11     12.04      0.87         0.01
  CDT-85                     11.07     11.07     11.30      0.01         0.01
  CDT-91                     12.36     12.36     12.68      0.01         0.01
  CDT-95                      1.39      1.39     23.10      0.01         0.01
  CDT-97                      0.56      0.56     23.07      0.01         0.01
  CDT-99                     23.19     23.19     23.23      0.01         0.01
  CELL-1_IN                  11.30     11.30     11.60      0.01         0.01
  CELL-2_IN                  12.68     12.68     13.05      0.01         0.01
  CELL-3_IN                  15.86     15.86     16.34      0.01         0.01
  E11104-E11106               0.01      0.01      0.49      0.01         0.01
  E11129-E11125               3.28      3.28      4.15      0.01         0.01
  E11130-E11129               2.40      2.40      3.23      0.01         0.01
  E11141-E11140               0.01      0.01      1.54      0.01         0.01
  E11142-E11141               4.14      4.14      5.26      0.50         0.01
  E11144-E11143               0.01      0.01     23.23      0.01         0.01
  E11144-E11145               0.31      0.31     23.35      0.01         0.01
  E11145-E11143              23.36     23.36     23.40      0.01         0.82
  E11146-E11144               0.50      0.50     23.22      0.01         0.01
  E11147-E11145               3.93      3.93     23.36      0.01         0.01
  E11148-E11147               3.70      3.70      3.93      0.01         0.01
  E11149-E11148               0.01      0.01      3.93      0.01         0.01
  E11150-E11147               3.60      3.60      3.93      0.01         0.66
  E11150-E11151               0.01      0.01     19.55      0.01         0.01
  E11152-E11150               3.36      3.36      3.60      0.01         0.68
  E11171-E11143              23.04     23.04     23.40      0.01         0.01
  E11172-E11171               0.88      0.88     23.40      0.01         0.01
  E11173-E11172               0.88      0.88      2.23      0.01         0.01
  E11174-E11143               4.90      4.90     23.40      0.01         0.01
  E11175-E11174               3.35      3.35      4.90      0.01         0.01
  E11176-E11441               0.01      0.01      0.39      0.01         0.01
  E11177-E11176               6.95      6.95     22.29      0.01         0.01
  E11178-E11176               0.01      0.01      6.99      0.01         0.01
  E11179-E11152               5.50      5.50     21.69      0.01         0.01
  E11179-E11178               1.83      1.83      6.99      0.01         0.01
  E11180-E11179               1.27      1.27     23.31      0.01         0.01
  E11181-E11179               5.50      6.24      5.50      6.13         5.50
  E11182-E11181               3.76      3.76      6.24      0.01         0.01
  E11183-E11181               5.07      5.07      6.24      0.01         4.29
  E11184-E11183               1.28      1.28     21.36      0.01         0.01
  E11185-E11183              22.52     22.52     23.12      5.11        12.98
  E11186-E11185               4.70      4.70     22.52      0.01         0.01
  E11187-E11185              16.39     16.39     22.52      4.90        10.61
  E11188-E11187               6.08      6.08     16.39      0.01         0.01
  E11211-E11210               0.01      0.01     19.94      0.01         0.01
  E11213-E11212               0.01      0.01      1.78      0.01         0.01
  E11214-E11213               0.68      0.68      1.78      0.01         0.01
  E11441-E11175               0.78      0.78      3.35      0.01         0.01
  E11442-E11441              23.24     23.24     23.53      0.01         0.01
  E1182-E1181                 1.63      1.63     23.85      0.01         0.16
  E1183-E1182                 1.09      1.09     23.86      0.01         0.01
  E1184-E1182                 0.82      0.82     21.28      0.01         0.25
  E1185-E1184                 0.82      0.84      0.82      0.01         0.82
  E1186-E1184                 0.58      0.58      0.72      0.01         0.01
  E12153-E11152               0.01      0.01      0.89      0.01         0.01
  E12157-E12153               0.01      0.01      0.05      0.01         0.01
  E12158-E12157               0.01      0.01      0.42      0.01         0.01
  E12162-E12159               0.01      0.01      0.01      0.37         0.01
  E12163-E12162               0.01      0.01      0.30      0.27         0.01
  E12164-E12163               0.01      0.01      0.30      0.01         0.01
  E12165-E12164               0.01      0.01     16.36      0.01         0.01
  E12166-E12165              15.90     15.90     16.36      0.01         0.01
  E12167-E12166              15.90     15.90     15.90      3.78         0.02
  E12168-E12167              15.79     15.79     15.97      0.01         0.01
  E12169-E12168              15.90     15.90     16.14      0.01         0.01
  E12170-E12169               0.63      0.63     16.12      0.01         0.01
  E12189-E11187              12.98     12.98     16.39      5.11         7.01
  E12190-E12189               5.05      5.05     14.17      0.01         0.01
  E12191-E12190               4.67      4.67      5.05      0.30         2.46
  E12192-E12191               4.39      4.39      4.68      0.01         0.01
  E12193-E12192               4.02      4.02      4.32      0.01         0.01
  E12194-E12193               3.34      3.34      4.02      0.01         0.01
  E12195-E12189              12.88     12.88     12.98      0.59         7.97
  E12196-E12195               6.22      6.22     23.29      0.01         0.01
  E12197-E12195              10.77     10.77     12.88      0.78         4.71
  E12198-E12197               5.72      5.72     23.23      0.01         0.01
  E12199-E12197              10.33     10.33     10.77      0.01         5.72
  E12200-E12199               5.39      5.39      6.31      0.01         0.01
  E12201-E12200               4.69      4.69      4.92      0.01         0.01
  E12202-E12199               9.56      9.56     10.33      3.76         5.18
  E12204-E12202              13.73     13.73     14.79      1.94         6.84
  E12205-E12204              12.82     12.82     14.22      1.40         4.54
  E12206-E12205              11.04     11.04     12.82      0.01         4.43
  E12207-E12206               8.42      8.42     13.05      0.01         0.01
  E12208-E12207               4.68      4.68      8.42      0.01         0.01
  F11109-F11108               0.15      0.15      0.72      1.39         0.01
  F11110-F11109               0.32      0.32      0.72      0.01         0.01
  F1146-F1145                23.95     23.95     23.95      0.01         0.16
  F1149-F1150                 1.06      1.06     23.84      0.01         0.01
  F1154-F1149                 0.85      0.85      1.14      0.01         0.01
  F1163-F1162                 0.01      0.01     18.79      0.01         0.01
  F1164-F1163                 1.22      1.22     16.83      0.01         0.01
  F1165-F1164                 1.30      1.30      3.05      0.01         0.01
  F1166-F1165                 0.47      0.47      2.02      0.01         0.01
  F1167-F1163                16.82     16.82     18.94      0.01         0.01
  F1168-F1167                 7.88      7.88     13.73      0.01         0.01
  F1169-F1167                 0.64      0.64     16.75      0.01         0.01
  F1170-F1167                16.80     16.80     17.18      0.01         0.01
  F1171-F1170                17.20     17.20     17.97      0.01         0.14
  F1172-F1171                 0.37      0.37     16.93      0.01         0.01
  F1173-F1171                 0.45      0.45     17.20      0.01         0.01
  

  Analysis begun on:  Wed Jun 24 08:09:35 2026
  Analysis ended on:  Wed Jun 24 08:09:37 2026
  Total elapsed time: 00:00:02