
  EPA STORM WATER MANAGEMENT MODEL - VERSION 5.2 (Build 5.2.4)
  ------------------------------------------------------------

  WARNING 08: elevation drop exceeds length for Conduit 833
  WARNING 08: elevation drop exceeds length for Conduit 834
  WARNING 08: elevation drop exceeds length for Conduit 837
  WARNING 08: elevation drop exceeds length for Conduit 838
  WARNING 02: maximum depth increased for Node 1001
  WARNING 02: maximum depth increased for Node 1642
  WARNING 02: maximum depth increased for Node 1644
  WARNING 02: maximum depth increased for Node 1645
  WARNING 02: maximum depth increased for Node 934
  
  ****************
  Analysis Options
  ****************
  Flow Units ............... GPM
  Process Models:
    Rainfall/Runoff ........ NO
    RDII ................... NO
    Snowmelt ............... NO
    Groundwater ............ NO
    Flow Routing ........... YES
    Ponding Allowed ........ YES
    Water Quality .......... NO
  Flow Routing Method ...... DYNWAVE
  Surcharge Method ......... EXTRAN
  Starting Date ............ 01/01/2002 00:00:00
  Ending Date .............. 01/01/2002 23:00:00
  Antecedent Dry Days ...... 5.0
  Report Time Step ......... 00:05:00
  Routing Time Step ........ 10.00 sec
  Variable Time Step ....... YES
  Maximum Trials ........... 4
  Number of Threads ........ 1
  Head Tolerance ........... 0.005000 ft
  
  
  **************************        Volume        Volume
  Flow Routing Continuity        acre-feet      10^6 gal
  **************************     ---------     ---------
  Dry Weather Inflow .......        14.350         4.676
  Wet Weather Inflow .......         0.000         0.000
  Groundwater Inflow .......         0.000         0.000
  RDII Inflow ..............         0.000         0.000
  External Inflow ..........         0.000         0.000
  External Outflow .........        12.548         4.089
  Flooding Loss ............         0.138         0.045
  Evaporation Loss .........         0.000         0.000
  Exfiltration Loss ........         0.000         0.000
  Initial Stored Volume ....         0.173         0.056
  Final Stored Volume ......         1.738         0.566
  Continuity Error (%) .....         0.678
  
  
  *************************
  Highest Continuity Errors
  *************************
  Node W-2002 (-267.48%)
  Node 913 (100.00%)
  Node 1658 (100.00%)
  Node 1001 (90.16%)
  Node 1290 (75.78%)
  
  
  ***************************
  Time-Step Critical Elements
  ***************************
  Link 1026 (41.39%)
  Link 398 (33.84%)
  Link 836 (15.56%)
  Link 916 (4.03%)
  Link 249 (3.23%)
  
  
  ********************************
  Highest Flow Instability Indexes
  ********************************
  Link 860 (88)
  Link 952 (85)
  Link 859 (84)
  Link 954 (73)
  Link 851 (71)
  
  
  *********************************
  Most Frequent Nonconverging Nodes
  *********************************
  Node 935 (99.98%)
  Node 935NEW (99.98%)
  Node MS-11-2 (99.98%)
  Node MS1 (99.98%)
  Node MS10 (99.98%)
  
  
  *************************
  Routing Time Step Summary
  *************************
  Minimum Time Step           :     0.18 sec
  Average Time Step           :     1.80 sec
  Maximum Time Step           :     2.88 sec
  % of Time in Steady State   :     0.00
  Average Iterations per Step :     4.00
  % of Steps Not Converging   :    99.98
  Time Step Frequencies       :
     10.000 -  1.585 sec      :    75.73 %
      1.585 -  0.251 sec      :    24.27 %
      0.251 -  0.040 sec      :     0.01 %
      0.040 -  0.006 sec      :     0.00 %
      0.006 -  0.001 sec      :     0.00 %
  
  
  ******************
  Node Depth Summary
  ******************
  
  ---------------------------------------------------------------------------------
                                 Average  Maximum  Maximum  Time of Max    Reported
                                   Depth    Depth      HGL   Occurrence   Max Depth
  Node                 Type         Feet     Feet     Feet  days hr:min        Feet
  ---------------------------------------------------------------------------------
  1000                 JUNCTION     9.49    11.39   579.90     0  07:00       11.30
  1001                 JUNCTION    10.08    11.93   579.84     0  05:29       11.91
  1002                 JUNCTION     0.00     0.00   567.47     0  00:00        0.00
  1003                 JUNCTION     0.00     0.00   566.66     0  00:00        0.00
  1004                 JUNCTION     0.00     0.00   565.78     0  00:00        0.00
  1005                 JUNCTION     0.02     0.03   565.27     0  09:00        0.03
  1006                 JUNCTION     0.18     0.26   561.29     0  08:03        0.26
  1007                 JUNCTION     0.17     0.25   560.83     0  08:10        0.25
  1008                 JUNCTION     0.18     0.26   559.25     0  09:00        0.26
  1009                 JUNCTION     0.16     0.23   558.90     0  08:34        0.23
  1010                 JUNCTION     0.16     0.23   556.18     0  08:37        0.23
  1011                 JUNCTION     0.16     0.23   549.80     0  09:01        0.23
  1012                 JUNCTION     0.11     0.13   584.33     0  08:05        0.13
  1013                 JUNCTION     0.08     0.10   582.88     0  08:14        0.10
  1014                 JUNCTION     0.11     0.13   579.30     0  08:16        0.13
  1015                 JUNCTION     0.09     0.11   578.12     0  08:22        0.11
  1016                 JUNCTION     0.07     0.09   575.89     0  08:24        0.09
  1017                 JUNCTION     0.09     0.11   573.61     0  08:28        0.11
  1018                 JUNCTION     0.11     0.14   569.94     0  08:23        0.14
  1019                 JUNCTION     0.11     0.14   567.77     0  08:41        0.14
  1020                 JUNCTION     0.12     0.33   568.24     0  22:16        0.31
  1021                 JUNCTION     0.00     0.00   586.87     0  00:00        0.00
  1022                 JUNCTION     0.05     0.06   585.30     0  09:00        0.06
  1023                 JUNCTION     0.05     0.07   569.07     0  09:00        0.07
  1024                 JUNCTION     0.06     0.08   566.36     0  09:00        0.08
  1025                 JUNCTION     0.05     0.07   564.83     0  09:00        0.07
  1026                 JUNCTION     0.08     0.12   561.89     0  09:00        0.12
  1027                 JUNCTION     0.08     0.12   559.97     0  09:00        0.12
  1028                 JUNCTION     0.09     0.12   558.03     0  09:00        0.12
  1029                 JUNCTION     0.08     0.11   556.72     0  09:00        0.11
  1030                 JUNCTION     0.10     0.13   554.73     0  09:00        0.13
  1031                 JUNCTION     0.10     0.15   553.03     0  09:01        0.15
  1032                 JUNCTION     0.12     0.18   552.18     0  09:00        0.18
  1033                 JUNCTION     0.12     0.18   551.97     0  09:00        0.18
  1034                 JUNCTION     0.12     0.18   550.94     0  09:00        0.18
  1035                 JUNCTION     0.12     0.15   571.13     0  09:00        0.15
  1036                 JUNCTION     0.03     0.44   645.75     0  22:02        0.44
  1037                 JUNCTION     0.04     0.59   641.53     0  22:05        0.59
  1038                 JUNCTION     0.12     0.61   640.77     0  22:07        0.61
  1039                 JUNCTION     0.13     0.65   635.77     0  22:10        0.64
  1040                 JUNCTION     0.12     0.61   633.70     0  22:11        0.60
  1041                 JUNCTION     0.10     0.48   631.38     0  22:11        0.47
  1042                 JUNCTION     0.09     0.40   627.74     0  22:12        0.40
  1043                 JUNCTION     0.09     0.40   622.98     0  22:13        0.39
  1044                 JUNCTION     0.09     0.40   616.09     0  22:13        0.39
  1045                 JUNCTION     0.07     0.33   612.92     0  22:13        0.32
  1046                 JUNCTION     0.36     0.73   607.89     0  22:15        0.73
  1047                 JUNCTION     0.36     0.72   607.34     0  22:16        0.72
  1048                 JUNCTION     0.22     0.44   606.80     0  22:16        0.44
  1049                 JUNCTION     0.21     0.41   606.25     0  22:16        0.41
  1050                 JUNCTION     0.29     0.58   605.98     0  22:16        0.57
  1051                 JUNCTION     0.29     0.57   604.89     0  22:17        0.56
  1052                 JUNCTION     0.29     0.57   602.82     0  22:18        0.57
  1053                 JUNCTION     0.30     0.58   601.76     0  22:18        0.58
  1054                 JUNCTION     0.30     0.58   601.13     0  22:19        0.58
  1055                 JUNCTION     0.30     0.58   599.85     0  22:20        0.58
  1056                 JUNCTION     0.30     0.57   598.94     0  22:21        0.57
  1057                 JUNCTION     0.30     0.57   596.78     0  22:22        0.56
  1058                 JUNCTION     0.30     0.57   595.18     0  22:23        0.56
  1059                 JUNCTION     0.30     0.57   593.34     0  22:24        0.57
  1060                 JUNCTION     0.30     0.56   592.13     0  22:25        0.56
  1061                 JUNCTION     0.21     0.39   589.93     0  22:26        0.39
  1062                 JUNCTION     0.30     0.56   581.59     0  22:27        0.55
  1063                 JUNCTION     0.28     0.48   580.28     0  22:29        0.48
  1064                 JUNCTION     0.30     0.48   577.64     0  22:32        0.47
  1065                 JUNCTION     0.28     0.45   576.22     0  22:33        0.45
  1066                 JUNCTION     0.28     0.45   574.70     0  22:34        0.45
  1067                 JUNCTION     0.29     0.46   574.04     0  22:35        0.46
  1068                 JUNCTION     0.29     0.46   573.17     0  22:35        0.46
  1069                 JUNCTION     0.29     0.46   572.63     0  22:37        0.45
  1070                 JUNCTION     0.29     0.46   570.73     0  22:37        0.45
  1071                 JUNCTION     0.29     0.45   570.33     0  22:38        0.45
  1072                 JUNCTION     0.29     0.45   569.08     0  22:39        0.45
  1073                 JUNCTION     0.32     0.47   567.99     0  22:40        0.47
  1074                 JUNCTION     0.31     0.46   566.39     0  22:41        0.46
  1075                 JUNCTION     0.31     0.46   565.54     0  22:41        0.45
  1076                 JUNCTION     0.33     0.46   563.23     0  22:44        0.46
  1077                 JUNCTION     0.33     0.46   560.99     0  22:45        0.46
  1078                 JUNCTION     0.34     0.47   560.02     0  22:46        0.47
  1079                 JUNCTION     0.34     0.47   558.46     0  22:46        0.47
  1080                 JUNCTION     0.34     0.48   557.77     0  22:48        0.47
  1081                 JUNCTION     0.37     0.50   551.10     0  08:52        0.50
  1082                 JUNCTION     0.37     0.50   549.12     0  08:54        0.50
  1083                 JUNCTION     0.37     0.50   546.52     0  08:55        0.50
  1084                 JUNCTION     0.37     0.50   545.07     0  08:55        0.50
  1085                 JUNCTION     0.38     0.51   544.73     0  08:56        0.51
  1086                 JUNCTION     0.39     0.52   543.30     0  08:57        0.52
  1087                 JUNCTION     0.39     0.53   541.06     0  08:59        0.53
  1088                 JUNCTION     0.39     0.54   538.01     0  09:00        0.54
  1089                 JUNCTION     0.30     0.41   537.11     0  09:00        0.41
  1090                 JUNCTION     0.00     0.00   532.51     0  00:00        0.00
  1091                 JUNCTION     0.00     0.00   532.14     0  00:00        0.00
  1092                 JUNCTION     0.00     0.00   531.02     0  00:00        0.00
  1093                 JUNCTION     0.00     0.00   530.03     0  00:00        0.00
  1094                 JUNCTION     0.00     0.00   529.32     0  00:00        0.00
  1095                 JUNCTION     0.03     0.04   527.95     0  09:00        0.04
  1096                 JUNCTION     0.01     0.02   524.28     0  09:00        0.02
  1097                 JUNCTION     0.38     0.54   522.05     0  09:05        0.54
  1098                 JUNCTION     0.56     1.05   521.91     0  09:04        1.03
  1099                 JUNCTION     3.58     8.88   526.68     0  00:00        3.98
  1100                 JUNCTION     0.06     0.07   570.32     0  21:03        0.07
  1101                 JUNCTION     0.10     0.11   568.75     0  21:00        0.11
  1102                 JUNCTION     0.11     0.12   568.25     0  21:00        0.12
  1103                 JUNCTION     0.08     0.09   567.64     0  21:00        0.09
  1104                 JUNCTION     0.08     0.09   566.64     0  21:01        0.09
  1105                 JUNCTION     0.10     0.11   564.30     0  21:02        0.11
  1106                 JUNCTION     0.12     0.14   562.94     0  21:02        0.14
  1107                 JUNCTION     0.11     0.13   562.56     0  21:00        0.13
  1108                 JUNCTION     0.16     0.59   562.01     0  06:16        0.59
  1109                 JUNCTION    44.28   162.99   722.49     0  09:02      137.53
  1110                 JUNCTION     0.04     0.05   567.56     0  21:00        0.05
  1111                 JUNCTION     0.07     0.08   564.52     0  21:00        0.08
  1112                 JUNCTION     0.00     0.00   592.76     0  00:00        0.00
  1113                 JUNCTION     0.09     0.11   590.61     0  21:11        0.11
  1114                 JUNCTION     0.17     0.20   585.14     0  21:00        0.20
  1115                 JUNCTION     0.18     0.21   584.00     0  21:00        0.21
  1116                 JUNCTION     0.17     0.21   580.92     0  21:17        0.21
  1117                 JUNCTION     0.08     0.09   580.09     0  21:17        0.09
  1118                 JUNCTION     0.13     0.15   592.30     0  21:00        0.15
  1119                 JUNCTION     0.17     0.20   587.91     0  21:00        0.20
  1120                 JUNCTION     0.16     0.19   586.19     0  21:00        0.19
  1121                 JUNCTION     0.18     0.21   581.21     0  21:00        0.21
  1122                 JUNCTION     0.12     0.14   579.78     0  21:15        0.14
  1123                 JUNCTION    67.36   133.23   713.23     0  09:02      109.46
  1124                 JUNCTION     0.08     0.09   596.59     0  21:00        0.09
  1125                 JUNCTION     0.07     0.08   591.25     0  21:00        0.08
  1126                 JUNCTION     0.19     0.34   640.76     0  21:26        0.33
  1127                 JUNCTION     0.35     0.54   623.24     0  21:28        0.53
  1128                 JUNCTION     0.27     0.43   622.80     0  21:29        0.43
  1129                 JUNCTION     0.31     0.48   622.27     0  21:31        0.47
  1130                 JUNCTION     0.28     0.42   621.44     0  21:33        0.41
  1131                 JUNCTION     0.28     0.40   620.47     0  21:34        0.40
  1132                 JUNCTION     0.29     0.41   619.50     0  21:36        0.40
  1133                 JUNCTION     0.33     0.46   617.77     0  21:39        0.46
  1134                 JUNCTION     0.32     0.44   617.14     0  21:41        0.44
  1135                 JUNCTION     0.29     0.40   615.97     0  21:43        0.40
  1136                 JUNCTION     0.19     0.26   614.51     0  21:43        0.26
  1137                 JUNCTION     0.27     0.37   612.97     0  21:45        0.37
  1138                 JUNCTION     0.29     0.39   611.24     0  21:47        0.38
  1139                 JUNCTION     0.29     0.38   609.67     0  21:49        0.38
  1140                 JUNCTION     0.06     0.17   596.87     0  19:39        0.17
  1141                 JUNCTION     0.07     0.18   593.99     0  19:40        0.18
  1142                 JUNCTION     0.07     0.16   591.16     0  19:42        0.16
  1143                 JUNCTION     0.07     0.14   587.27     0  21:58        0.14
  1144                 JUNCTION     0.11     0.22   579.02     0  21:58        0.22
  1145                 JUNCTION     0.12     0.23   578.17     0  21:59        0.23
  1146                 JUNCTION     0.07     0.13   577.63     0  21:59        0.13
  1147                 JUNCTION     0.32     0.86   564.78     0  22:02        0.84
  1148                 JUNCTION     0.67     1.23   564.74     0  22:01        1.18
  1149                 JUNCTION     1.06     1.80   564.90     0  09:45        1.60
  1150                 JUNCTION    51.68   256.07   819.07     0  07:24      100.67
  1151                 JUNCTION     0.10     0.30   620.75     0  09:06        0.28
  1152                 JUNCTION     0.14     0.38   618.94     0  09:07        0.36
  1153                 JUNCTION     0.15     0.35   617.96     0  09:09        0.35
  1154                 JUNCTION     0.15     0.33   616.95     0  09:12        0.31
  1155                 JUNCTION     0.17     0.32   614.22     0  09:14        0.31
  1156                 JUNCTION     0.21     0.35   613.28     0  09:15        0.35
  1157                 JUNCTION     0.16     0.27   612.59     0  09:18        0.27
  1158                 JUNCTION     0.20     0.32   610.55     0  09:20        0.32
  1159                 JUNCTION     0.16     0.26   609.22     0  09:22        0.26
  1160                 JUNCTION     0.18     0.29   597.46     0  09:27        0.29
  1161                 JUNCTION     0.15     0.23   595.48     0  08:52        0.23
  1162                 JUNCTION     0.10     0.15   590.60     0  08:53        0.15
  1163                 JUNCTION     0.11     0.16   588.69     0  08:55        0.16
  1164                 JUNCTION     0.12     0.17   583.35     0  08:57        0.17
  1165                 JUNCTION     0.00     0.00   636.21     0  00:00        0.00
  1166                 JUNCTION     0.00     0.00   635.93     0  00:00        0.00
  1167                 JUNCTION     0.00     0.00   633.73     0  00:00        0.00
  1168                 JUNCTION     0.01     0.02   632.40     0  17:22        0.02
  1169                 JUNCTION     0.05     0.10   613.37     0  13:34        0.10
  1170                 JUNCTION     0.11     0.16   608.11     0  18:00        0.16
  1171                 JUNCTION     0.16     0.24   603.58     0  18:00        0.24
  1172                 JUNCTION     0.06     0.08   601.53     0  18:00        0.08
  1173                 JUNCTION     0.06     0.08   591.62     0  18:00        0.08
  1174                 JUNCTION     0.07     0.10   590.29     0  18:00        0.10
  1175                 JUNCTION     0.06     0.09   588.31     0  18:00        0.09
  1176                 JUNCTION     0.05     0.08   584.42     0  18:01        0.08
  1177                 JUNCTION     0.10     0.14   580.64     0  08:05        0.14
  1178                 JUNCTION     0.08     0.12   610.22     0  17:23        0.12
  1179                 JUNCTION     0.12     0.18   608.77     0  17:53        0.18
  1180                 JUNCTION     0.18     0.26   583.53     0  09:00        0.26
  1181                 JUNCTION     0.14     0.20   582.13     0  09:00        0.20
  1182                 JUNCTION     0.15     0.21   578.07     0  09:00        0.21
  1183                 JUNCTION     0.04     0.05   578.26     0  08:29        0.05
  1184                 JUNCTION     0.04     0.06   576.61     0  08:13        0.06
  1185                 JUNCTION     0.04     0.06   574.29     0  08:13        0.06
  1186                 JUNCTION     0.04     0.06   573.56     0  09:00        0.06
  1187                 JUNCTION     0.06     0.09   573.36     0  09:00        0.09
  1188                 JUNCTION     0.10     0.15   571.62     0  08:22        0.15
  1189                 JUNCTION     0.09     0.13   571.19     0  08:36        0.13
  1190                 JUNCTION     0.09     0.13   570.67     0  08:43        0.13
  1191                 JUNCTION     0.20     0.28   573.28     0  09:00        0.28
  1192                 JUNCTION     0.19     0.27   572.07     0  09:00        0.27
  1193                 JUNCTION     0.19     0.27   570.98     0  09:00        0.27
  1194                 JUNCTION     0.19     0.27   569.71     0  09:00        0.27
  1195                 JUNCTION     0.20     0.29   568.54     0  09:00        0.29
  1196                 JUNCTION     0.11     0.15   567.65     0  09:00        0.15
  1197                 JUNCTION     0.07     0.11   543.55     0  08:06        0.11
  1198                 JUNCTION     0.07     0.10   541.52     0  08:19        0.10
  1199                 JUNCTION     0.15     0.22   540.29     0  08:21        0.22
  1200                 JUNCTION     0.12     0.16   551.23     0  08:36        0.16
  1201                 JUNCTION     0.12     0.17   550.43     0  09:00        0.17
  1202                 JUNCTION     0.15     0.21   549.23     0  09:00        0.21
  1203                 JUNCTION     0.09     0.13   548.01     0  09:00        0.13
  1204                 JUNCTION     0.10     0.14   539.06     0  09:00        0.14
  1205                 JUNCTION     0.00     0.00   573.34     0  00:00        0.00
  1206                 JUNCTION     0.12     0.17   572.28     0  08:00        0.17
  1207                 JUNCTION     0.13     0.18   571.87     0  08:00        0.18
  1208                 JUNCTION     0.09     0.12   570.85     0  08:00        0.12
  1209                 JUNCTION     0.13     0.18   568.28     0  08:00        0.18
  1210                 JUNCTION     0.12     0.17   567.50     0  08:00        0.17
  1211                 JUNCTION     0.13     0.18   566.64     0  08:01        0.18
  1212                 JUNCTION     0.13     0.18   565.10     0  08:00        0.18
  1213                 JUNCTION     0.12     0.18   564.65     0  08:00        0.18
  1214                 JUNCTION     0.10     0.15   563.26     0  08:00        0.15
  1215                 JUNCTION     0.06     0.09   575.53     0  07:57        0.09
  1216                 JUNCTION     0.10     0.14   576.99     0  08:00        0.14
  1217                 JUNCTION     0.08     0.11   584.31     0  08:00        0.11
  1218                 JUNCTION     0.13     0.18   586.34     0  07:59        0.18
  1219                 JUNCTION     0.11     0.35   623.33     0  07:59        0.34
  1220                 JUNCTION     0.08     0.25   615.37     0  07:59        0.24
  1221                 JUNCTION     0.13     0.38   596.38     0  08:01        0.38
  1222                 JUNCTION     0.13     0.31   593.77     0  08:04        0.31
  1223                 JUNCTION     0.13     0.31   584.74     0  08:05        0.31
  1224                 JUNCTION     0.12     0.29   581.94     0  08:06        0.28
  1225                 JUNCTION     0.11     0.26   580.18     0  08:08        0.25
  1226                 JUNCTION     0.12     0.27   576.11     0  08:09        0.27
  1227                 JUNCTION     0.10     0.24   575.19     0  08:09        0.24
  1228                 JUNCTION     0.12     0.22   569.38     0  08:10        0.22
  1229                 JUNCTION     0.20     0.36   558.21     0  08:11        0.36
  1230                 JUNCTION     0.17     0.32   557.55     0  08:12        0.32
  1231                 JUNCTION     0.17     0.31   556.73     0  08:13        0.31
  1232                 JUNCTION     0.18     0.31   554.37     0  08:15        0.31
  1233                 JUNCTION     0.19     0.34   552.07     0  08:17        0.33
  1234                 JUNCTION     0.16     0.29   551.42     0  08:17        0.28
  1235                 JUNCTION     0.16     0.27   550.36     0  08:18        0.27
  1236                 JUNCTION     0.20     0.33   546.17     0  08:20        0.33
  1237                 JUNCTION     0.20     0.32   543.66     0  08:21        0.32
  1238                 JUNCTION     0.13     0.21   542.98     0  08:21        0.21
  1239                 JUNCTION     0.22     0.36   535.49     0  08:23        0.36
  1240                 JUNCTION     0.28     0.45   532.85     0  08:25        0.45
  1241                 JUNCTION     0.23     0.38   532.21     0  08:28        0.37
  1242                 JUNCTION     0.26     0.41   530.41     0  08:30        0.41
  1243                 JUNCTION     0.20     0.32   528.92     0  08:31        0.31
  1244                 JUNCTION     0.18     0.29   523.92     0  08:33        0.29
  1245                 JUNCTION     0.25     0.40   514.86     0  08:33        0.40
  1246                 JUNCTION     0.35     0.56   513.56     0  08:34        0.56
  1247                 JUNCTION     0.32     0.50   513.22     0  08:35        0.50
  1248                 JUNCTION     0.28     0.43   507.04     0  08:39        0.43
  1249                 JUNCTION     0.28     0.43   502.49     0  08:47        0.43
  1250                 JUNCTION    52.09   166.82   729.36     0  12:47       73.46
  1251                 JUNCTION     0.07     0.10   598.39     0  07:46        0.10
  1252                 JUNCTION     0.08     0.11   592.71     0  07:57        0.11
  1253                 JUNCTION     0.15     0.22   587.36     0  07:21        0.22
  1254                 JUNCTION     0.11     0.16   587.18     0  07:26        0.16
  1257                 JUNCTION     0.10     0.19   555.19     0  08:30        0.19
  1258                 JUNCTION     0.14     0.22   541.64     0  08:28        0.22
  1259                 JUNCTION     0.13     0.22   530.22     0  08:41        0.22
  1260                 JUNCTION     0.07     0.10   547.33     0  08:00        0.10
  1261                 JUNCTION     0.07     0.09   546.35     0  08:00        0.09
  1262                 JUNCTION     0.07     0.10   545.76     0  08:00        0.10
  1263                 JUNCTION     0.06     0.08   545.18     0  08:00        0.08
  1264                 JUNCTION     0.00     0.00   545.97     0  00:00        0.00
  1265                 JUNCTION     0.08     0.12   545.14     0  07:07        0.12
  1266                 JUNCTION     0.08     0.12   544.13     0  07:17        0.12
  1267                 JUNCTION     0.10     0.14   543.59     0  07:14        0.14
  1268                 JUNCTION     0.10     0.14   542.87     0  07:18        0.14
  1269                 JUNCTION     0.10     0.14   542.04     0  07:25        0.14
  1270                 JUNCTION     0.12     0.17   541.43     0  07:32        0.17
  1271                 JUNCTION     0.15     0.21   540.54     0  08:00        0.21
  1272                 JUNCTION     0.10     0.14   539.48     0  08:01        0.14
  1273                 JUNCTION     0.08     0.12   533.56     0  08:00        0.12
  1274                 JUNCTION     6.97    81.53   691.42     0  02:12       29.91
  1275                 JUNCTION     0.00     0.00   614.89     0  00:00        0.00
  1276                 JUNCTION     4.66    46.72   657.66     0  17:17       27.05
  1277                 JUNCTION     0.05     0.45   616.39     0  22:10        0.43
  1278                 JUNCTION     0.05     0.34   613.94     0  22:11        0.33
  1279                 JUNCTION     0.05     0.32   612.98     0  22:13        0.32
  1280                 JUNCTION     0.05     0.29   611.69     0  22:15        0.29
  1281                 JUNCTION     0.07     0.28   610.18     0  22:17        0.27
  1282                 JUNCTION     0.07     0.25   608.65     0  22:19        0.25
  1283                 JUNCTION     0.09     0.25   607.16     0  22:21        0.24
  1284                 JUNCTION     0.04     0.05   613.79     0  08:10        0.05
  1285                 JUNCTION     0.04     0.05   612.35     0  08:18        0.05
  1286                 JUNCTION     0.04     0.05   610.91     0  08:31        0.05
  1287                 JUNCTION     0.06     0.08   609.49     0  08:37        0.08
  1288                 JUNCTION     0.06     0.08   607.47     0  08:35        0.08
  1289                 JUNCTION     0.06     0.08   605.42     0  08:47        0.08
  1290                 JUNCTION     7.30   109.84   667.74     0  22:23       98.81
  1291                 JUNCTION     2.24    58.90   650.73     0  13:14       41.83
  1292                 JUNCTION     0.00     0.00   596.83     0  00:00        0.00
  1293                 JUNCTION     0.00     0.00   592.26     0  00:00        0.00
  1294                 JUNCTION     0.17     0.24   586.68     0  09:00        0.24
  1295                 JUNCTION     0.32     0.38   569.53     0  08:30        0.38
  1296                 JUNCTION     0.00     0.13   609.13     0  22:24        0.13
  1297                 JUNCTION     0.21     0.42   642.93     0  21:23        0.42
  1298                 JUNCTION     0.21     0.41   643.69     0  21:22        0.40
  1299                 JUNCTION     0.21     0.42   645.78     0  21:21        0.41
  1300                 JUNCTION     0.20     0.46   648.29     0  21:19        0.45
  1301                 JUNCTION     0.20     0.50   649.69     0  21:18        0.47
  1302                 JUNCTION     0.12     0.19   607.35     0  09:24        0.19
  1303                 JUNCTION     0.10     0.14   579.28     0  08:05        0.14
  1304                 JUNCTION     0.14     0.21   589.56     0  08:49        0.21
  1305                 JUNCTION     0.04     0.05   575.83     0  08:21        0.05
  1306                 JUNCTION     0.16     0.22   539.50     0  08:22        0.22
  1307                 JUNCTION     0.42     0.58   532.69     0  09:00        0.58
  1308                 JUNCTION     0.01     0.02   631.70     0  17:44        0.02
  1310                 JUNCTION     6.69   105.36   662.52     0  09:45       39.88
  1311                 JUNCTION     0.05     0.27   562.43     0  08:09        0.26
  1312                 JUNCTION     0.08     0.27   561.54     0  07:29        0.27
  1313                 JUNCTION     0.08     0.28   561.33     0  07:29        0.27
  1314                 JUNCTION     0.08     0.24   559.86     0  07:31        0.24
  1315                 JUNCTION     0.08     0.21   557.66     0  07:34        0.21
  1316                 JUNCTION     0.08     0.18   555.44     0  07:37        0.18
  1317                 JUNCTION     0.14     0.24   553.61     0  07:39        0.24
  1318                 JUNCTION     0.15     0.25   552.17     0  07:41        0.25
  1319                 JUNCTION     0.16     0.26   550.56     0  07:42        0.26
  1320                 JUNCTION     0.20     0.33   550.42     0  07:43        0.33
  1321                 JUNCTION     4.07     5.52   471.79     0  08:35        5.50
  1322                 JUNCTION     0.21     0.27   474.68     0  09:44        0.27
  1323                 JUNCTION     0.21     0.27   505.78     0  09:44        0.27
  1324                 JUNCTION     0.25     0.33   523.87     0  09:43        0.33
  1325                 JUNCTION     0.44     0.58   525.71     0  09:42        0.58
  1326                 JUNCTION     0.40     0.53   528.17     0  09:41        0.53
  1327                 JUNCTION     0.35     0.47   531.48     0  09:39        0.47
  1328                 JUNCTION     0.34     0.49   534.76     0  01:31        0.48
  1329                 JUNCTION    71.49   106.71   576.51     0  17:10       89.89
  1330                 JUNCTION     1.15     5.36   465.49     0  09:35        5.34
  1331                 JUNCTION     1.12     5.08   465.51     0  09:36        5.05
  1332                 JUNCTION     1.01     4.79   465.52     0  09:40        4.76
  1333                 JUNCTION     0.91     4.46   465.52     0  09:40        4.43
  1334                 JUNCTION     0.73     3.82   465.51     0  09:36        3.80
  1335                 JUNCTION     0.50     2.79   465.53     0  09:34        2.77
  1336                 JUNCTION     0.34     1.75   465.54     0  09:37        1.72
  1337                 JUNCTION     0.23     0.69   465.53     0  09:40        0.69
  1338                 JUNCTION     0.21     0.32   466.23     0  08:10        0.32
  1339                 JUNCTION     0.18     0.27   468.68     0  08:09        0.27
  1340                 JUNCTION     0.18     0.27   471.18     0  08:06        0.27
  1341                 JUNCTION     0.12     0.18   483.13     0  08:05        0.18
  1342                 JUNCTION     0.18     0.27   484.72     0  08:04        0.27
  1343                 JUNCTION     0.20     0.31   485.59     0  08:05        0.31
  1344                 JUNCTION     0.19     0.29   487.08     0  08:02        0.29
  1345                 JUNCTION     0.19     0.29   488.62     0  08:00        0.29
  1346                 JUNCTION     0.12     0.18   499.65     0  08:00        0.18
  1347                 JUNCTION     0.10     0.15   518.25     0  08:00        0.15
  1348                 JUNCTION     0.19     0.29   520.17     0  08:00        0.29
  1349                 JUNCTION     0.18     0.27   521.85     0  08:01        0.27
  1350                 JUNCTION     0.18     0.27   523.55     0  08:00        0.27
  1351                 JUNCTION     0.18     0.27   525.48     0  08:00        0.27
  1352                 JUNCTION     0.14     0.20   532.11     0  08:00        0.20
  1353                 JUNCTION     0.06     0.09   486.74     0  07:57        0.09
  1354                 JUNCTION     0.10     0.15   541.75     0  08:00        0.15
  1355                 JUNCTION     0.11     0.16   549.16     0  08:00        0.16
  1356                 JUNCTION     0.15     0.22   551.58     0  08:00        0.22
  1357                 JUNCTION     0.17     0.25   553.31     0  08:00        0.25
  1358                 JUNCTION     0.11     0.16   559.64     0  08:00        0.16
  1359                 JUNCTION     0.09     0.13   567.92     0  08:00        0.13
  1360                 JUNCTION     0.13     0.19   569.61     0  08:00        0.19
  1361                 JUNCTION     0.10     0.15   572.85     0  08:00        0.15
  1362                 JUNCTION     0.01     0.02   599.54     0  08:00        0.02
  1363                 JUNCTION     0.00     0.00   598.75     0  08:01        0.00
  1364                 JUNCTION     0.00     0.01   584.73     0  08:05        0.01
  1365                 JUNCTION     0.01     0.01   583.37     0  08:07        0.01
  1366                 JUNCTION     0.01     0.01   583.01     0  08:47        0.01
  1367                 JUNCTION     0.19     0.27   582.30     0  08:00        0.27
  1368                 JUNCTION     0.19     0.27   580.82     0  08:00        0.27
  1369                 JUNCTION     0.18     0.25   579.78     0  08:00        0.25
  1370                 JUNCTION     0.25     0.35   579.17     0  08:00        0.35
  1371                 JUNCTION     0.19     0.27   578.63     0  08:00        0.27
  1372                 JUNCTION     0.17     0.24   574.09     0  08:00        0.24
  1373                 JUNCTION     0.27     0.40   567.83     0  08:00        0.40
  1374                 JUNCTION     0.33     0.48   565.79     0  08:00        0.48
  1375                 JUNCTION     0.47     0.63   565.54     0  08:00        0.63
  1376                 JUNCTION     0.37     0.55   556.70     0  08:00        0.55
  1377                 JUNCTION     0.18     0.25   560.78     0  08:00        0.25
  1378                 JUNCTION     0.48     0.71   554.11     0  08:00        0.71
  1379                 JUNCTION     0.32     0.95   465.56     0  09:35        0.95
  1380                 JUNCTION     0.38     0.58   469.32     0  08:10        0.58
  1381                 JUNCTION     0.36     0.54   473.41     0  08:09        0.54
  1382                 JUNCTION     0.37     0.54   477.54     0  08:08        0.54
  1383                 JUNCTION     0.37     0.54   481.25     0  08:07        0.54
  1384                 JUNCTION     0.33     0.48   498.12     0  08:07        0.48
  1385                 JUNCTION     0.54     0.82   499.46     0  08:06        0.82
  1386                 JUNCTION     0.32     0.46   505.88     0  08:05        0.46
  1387                 JUNCTION     0.21     0.30   526.20     0  08:04        0.30
  1388                 JUNCTION     0.45     0.68   529.62     0  08:04        0.68
  1389                 JUNCTION     0.47     0.69   531.39     0  08:02        0.69
  1390                 JUNCTION     0.46     0.69   533.06     0  08:02        0.69
  1391                 JUNCTION     0.46     0.69   533.96     0  08:01        0.69
  1392                 JUNCTION     0.44     0.65   536.47     0  08:00        0.65
  1393                 JUNCTION     0.44     0.65   537.77     0  08:00        0.65
  1394                 JUNCTION     0.44     0.64   538.31     0  08:00        0.64
  1395                 JUNCTION     0.48     0.72   545.22     0  08:00        0.72
  1396                 JUNCTION     0.47     0.70   545.85     0  08:00        0.70
  1397                 JUNCTION     0.49     0.74   546.91     0  08:00        0.74
  1398                 JUNCTION     0.14     1.47   465.47     0  09:33        1.47
  1399                 JUNCTION     0.00     0.00   468.52     0  00:00        0.00
  1400                 JUNCTION     0.00     0.00   469.05     0  00:00        0.00
  1401                 JUNCTION     0.00     0.00   472.35     0  00:00        0.00
  1402                 JUNCTION     0.00     0.00   503.20     0  00:00        0.00
  1403                 JUNCTION     0.00     0.00   534.00     0  00:00        0.00
  1404                 JUNCTION     0.00     0.00   551.80     0  00:00        0.00
  1405                 JUNCTION     0.01     0.02   546.25     0  08:00        0.02
  1406                 JUNCTION     0.00     0.00   554.09     0  00:00        0.00
  1407                 JUNCTION     2.46     2.87   534.78     0  08:01        2.87
  1408                 JUNCTION     0.06     0.09   534.78     0  08:00        0.09
  1409                 JUNCTION     0.06     0.08   540.55     0  08:00        0.08
  1410                 JUNCTION     0.06     0.09   545.31     0  07:46        0.09
  1411                 JUNCTION     0.04     0.06   547.78     0  00:08        0.06
  1412                 JUNCTION     0.04     0.05   542.05     0  08:06        0.05
  1413                 JUNCTION     0.04     0.06   545.91     0  08:06        0.06
  1414                 JUNCTION     0.04     0.06   547.49     0  08:04        0.06
  1415                 JUNCTION     0.06     0.09   550.71     0  08:03        0.09
  1416                 JUNCTION     0.11     0.12   629.57     0  21:00        0.12
  1417                 JUNCTION     0.14     0.16   629.93     0  21:00        0.16
  1418                 JUNCTION     0.12     0.14   630.67     0  21:00        0.14
  1419                 JUNCTION     0.00     0.00   631.23     0  00:00        0.00
  1420                 JUNCTION     0.15     0.18   606.31     0  21:00        0.18
  1421                 JUNCTION     0.25     0.29   606.52     0  21:00        0.29
  1422                 JUNCTION     0.18     0.21   606.82     0  21:00        0.21
  1423                 JUNCTION     0.19     0.23   607.70     0  21:00        0.23
  1424                 JUNCTION     0.08     0.10   606.85     0  20:20        0.10
  1425                 JUNCTION     0.08     0.10   607.72     0  20:08        0.10
  1426                 JUNCTION     0.19     0.22   608.62     0  21:00        0.22
  1427                 JUNCTION     0.20     0.23   609.65     0  21:00        0.23
  1428                 JUNCTION     0.19     0.23   610.44     0  21:00        0.23
  1429                 JUNCTION     0.20     0.23   611.45     0  21:00        0.23
  1430                 JUNCTION     0.13     0.15   596.82     0  21:03        0.15
  1431                 JUNCTION     0.15     0.18   600.17     0  21:01        0.18
  1432                 JUNCTION     0.17     0.20   601.60     0  21:00        0.20
  1433                 JUNCTION     0.18     0.21   603.60     0  21:00        0.21
  1434                 JUNCTION     0.19     0.23   604.84     0  21:00        0.23
  1435                 JUNCTION     0.13     0.16   591.39     0  21:09        0.16
  1436                 JUNCTION     0.13     0.16   592.21     0  21:07        0.16
  1437                 JUNCTION     0.14     0.17   593.19     0  21:05        0.17
  1438                 JUNCTION     0.16     0.19   593.78     0  21:02        0.19
  1439                 JUNCTION     0.15     0.17   594.38     0  21:01        0.17
  1440                 JUNCTION     0.15     0.17   594.72     0  21:00        0.17
  1441                 JUNCTION     0.15     0.18   595.67     0  21:00        0.18
  1442                 JUNCTION     0.15     0.18   596.39     0  21:00        0.18
  1443                 JUNCTION     0.15     0.17   597.01     0  21:00        0.17
  1444                 JUNCTION     0.20     0.27   568.69     0  09:11        0.27
  1445                 JUNCTION     0.23     0.30   569.11     0  08:39        0.30
  1446                 JUNCTION     0.23     0.30   570.01     0  08:37        0.30
  1447                 JUNCTION     0.23     0.31   571.62     0  09:03        0.31
  1448                 JUNCTION     0.17     0.23   574.36     0  09:02        0.23
  1449                 JUNCTION     0.18     0.24   576.50     0  09:01        0.24
  1450                 JUNCTION     0.27     0.35   570.39     0  08:35        0.35
  1451                 JUNCTION     0.18     0.25   577.43     0  08:58        0.25
  1452                 JUNCTION     0.01     0.01   586.19     0  09:12        0.01
  1453                 JUNCTION     0.02     0.03   586.71     0  08:47        0.03
  1454                 JUNCTION     0.02     0.02   586.90     0  08:42        0.02
  1455                 JUNCTION     0.02     0.02   587.31     0  08:34        0.02
  1456                 JUNCTION     0.01     0.02   587.85     0  08:31        0.02
  1457                 JUNCTION     0.02     0.02   588.00     0  08:24        0.02
  1458                 JUNCTION     0.02     0.02   588.40     0  08:23        0.02
  1459                 JUNCTION     0.02     0.02   588.54     0  08:15        0.02
  1460                 JUNCTION     0.02     0.02   588.78     0  08:17        0.02
  1461                 JUNCTION     0.02     0.02   589.25     0  08:07        0.02
  1462                 JUNCTION     0.09     0.11   626.33     0  21:00        0.11
  1463                 JUNCTION     0.09     0.11   629.11     0  21:00        0.11
  1464                 JUNCTION     0.07     0.08   598.03     0  08:00        0.08
  1465                 JUNCTION     0.08     0.09   599.23     0  08:00        0.09
  1466                 JUNCTION     0.08     0.09   600.62     0  08:00        0.09
  1467                 JUNCTION     0.08     0.09   601.80     0  08:00        0.09
  1468                 JUNCTION     0.08     0.09   602.35     0  07:58        0.09
  1469                 JUNCTION     0.18     0.25   579.51     0  08:57        0.25
  1470                 JUNCTION     0.17     0.24   581.43     0  08:55        0.24
  1471                 JUNCTION     0.13     0.21   583.55     0  09:23        0.21
  1472                 JUNCTION     0.14     0.24   584.88     0  09:20        0.24
  1473                 JUNCTION     0.42     0.53   585.25     0  09:18        0.52
  1474                 JUNCTION     0.13     0.22   586.24     0  09:17        0.21
  1475                 JUNCTION     0.15     0.25   586.45     0  09:16        0.25
  1476                 JUNCTION     0.16     0.28   587.24     0  09:15        0.28
  1477                 JUNCTION     0.16     0.29   588.04     0  09:12        0.28
  1478                 JUNCTION     0.18     0.31   588.79     0  09:09        0.31
  1479                 JUNCTION     0.10     0.18   596.13     0  09:07        0.18
  1480                 JUNCTION     0.13     0.23   598.16     0  09:06        0.23
  1481                 JUNCTION     0.13     0.24   601.61     0  09:04        0.23
  1482                 JUNCTION     0.12     0.24   604.54     0  09:01        0.24
  1483                 JUNCTION     0.11     0.15   557.15     0  09:00        0.15
  1484                 JUNCTION     0.10     0.14   557.44     0  09:00        0.14
  1485                 JUNCTION     0.12     0.16   557.66     0  09:00        0.16
  1486                 JUNCTION     0.12     0.17   558.00     0  09:00        0.17
  1487                 JUNCTION     0.14     0.19   559.11     0  09:00        0.19
  1488                 JUNCTION     0.00     0.00   559.65     0  00:00        0.00
  1489                 JUNCTION     0.00     0.00   560.53     0  00:00        0.00
  1490                 JUNCTION     0.00     0.00   559.88     0  00:00        0.00
  1491                 JUNCTION     0.11     0.15   555.35     0  09:01        0.15
  1492                 JUNCTION     0.07     0.09   554.15     0  09:01        0.09
  1493                 JUNCTION     0.94     1.06   568.45     0  08:43        1.06
  1494                 JUNCTION     0.47     0.56   568.45     0  08:43        0.56
  1495                 JUNCTION     0.09     0.10   569.50     0  09:37        0.10
  1496                 JUNCTION     0.10     0.13   569.81     0  09:34        0.13
  1497                 JUNCTION     0.06     0.08   573.15     0  09:32        0.08
  1498                 JUNCTION     0.09     0.11   574.65     0  09:28        0.11
  1499                 JUNCTION     0.06     0.08   578.13     0  09:22        0.08
  1500                 JUNCTION     0.06     0.07   584.84     0  09:17        0.07
  1501                 JUNCTION     0.14     0.17   585.40     0  09:12        0.17
  1502                 JUNCTION     0.11     0.13   585.71     0  09:03        0.13
  1503                 JUNCTION     0.09     0.12   586.27     0  08:57        0.12
  1504                 JUNCTION     0.08     0.10   588.03     0  08:49        0.10
  1505                 JUNCTION     0.08     0.10   588.65     0  08:44        0.10
  1506                 JUNCTION     0.12     0.15   589.14     0  08:40        0.15
  1507                 JUNCTION     0.10     0.13   589.56     0  08:34        0.13
  1508                 JUNCTION     0.10     0.13   590.05     0  08:25        0.13
  1509                 JUNCTION     0.11     0.13   590.50     0  08:22        0.13
  1510                 JUNCTION     0.10     0.12   590.82     0  08:19        0.12
  1511                 JUNCTION     0.10     0.12   591.51     0  08:12        0.12
  1512                 JUNCTION     0.10     0.12   591.90     0  08:09        0.12
  1513                 JUNCTION     0.10     0.12   592.63     0  08:04        0.12
  1514                 JUNCTION     0.10     0.12   593.25     0  08:00        0.12
  1515                 JUNCTION     0.12     0.14   594.63     0  08:00        0.14
  1516                 JUNCTION     0.09     0.10   596.26     0  08:04        0.10
  1517                 JUNCTION     0.07     0.09   597.59     0  07:44        0.09
  1518                 JUNCTION     0.07     0.09   598.94     0  07:22        0.09
  1519                 JUNCTION     0.05     0.06   599.58     0  08:00        0.06
  1520                 JUNCTION     0.05     0.06   600.13     0  00:08        0.06
  1521                 JUNCTION     0.08     0.09   601.88     0  20:51        0.09
  1522                 JUNCTION     0.00     0.00   607.81     0  00:00        0.00
  1523                 JUNCTION     0.00     0.00   608.69     0  00:00        0.00
  1524                 JUNCTION     0.00     0.00   609.57     0  00:00        0.00
  1525                 JUNCTION     0.00     0.00   610.45     0  00:00        0.00
  1526                 JUNCTION     0.00     0.00   614.91     0  00:00        0.00
  1527                 JUNCTION     0.00     0.00   616.00     0  00:00        0.00
  1528                 JUNCTION     0.10     0.53   617.30     0  08:48        0.52
  1529                 JUNCTION     0.10     0.46   615.21     0  08:49        0.46
  1530                 JUNCTION     0.10     0.34   614.03     0  08:51        0.34
  1531                 JUNCTION     0.17     0.40   610.79     0  08:54        0.40
  1532                 JUNCTION     0.17     0.38   609.61     0  08:56        0.37
  1533                 JUNCTION     0.17     0.36   608.99     0  08:58        0.35
  1534                 JUNCTION     0.13     0.28   606.30     0  08:59        0.28
  1535                 JUNCTION     0.09     0.18   605.79     0  08:59        0.18
  1536                 JUNCTION     0.16     0.19   568.99     0  08:06        0.19
  1537                 JUNCTION     0.16     0.19   571.34     0  08:04        0.19
  1538                 JUNCTION     0.16     0.19   573.72     0  08:02        0.19
  1539                 JUNCTION     0.16     0.19   575.21     0  08:01        0.19
  1540                 JUNCTION     0.16     0.19   577.27     0  08:00        0.19
  1541                 JUNCTION     0.26     0.30   578.11     0  08:00        0.30
  1542                 JUNCTION     0.23     0.27   578.26     0  08:00        0.27
  1543                 JUNCTION     0.07     0.09   578.64     0  08:15        0.09
  1544                 JUNCTION     0.08     0.09   579.58     0  08:14        0.09
  1545                 JUNCTION     0.08     0.09   581.74     0  08:12        0.09
  1546                 JUNCTION     0.08     0.09   583.66     0  08:07        0.09
  1547                 JUNCTION     0.08     0.09   584.94     0  08:04        0.09
  1548                 JUNCTION     0.08     0.09   586.22     0  08:02        0.09
  1549                 JUNCTION     0.08     0.09   587.50     0  08:01        0.09
  1550                 JUNCTION     0.08     0.09   588.79     0  08:00        0.09
  1551                 JUNCTION     0.08     0.09   590.87     0  08:00        0.09
  1552                 JUNCTION     0.08     0.09   592.96     0  08:00        0.09
  1553                 JUNCTION     0.02     0.13   590.63     0  21:10        0.13
  1554                 JUNCTION    19.98    49.82   610.82     0  07:24       45.46
  1555                 JUNCTION     0.03     0.12   582.07     0  21:11        0.12
  1556                 JUNCTION     0.03     0.11   575.66     0  21:12        0.11
  1557                 JUNCTION     0.03     0.12   570.12     0  21:13        0.12
  1558                 JUNCTION     0.03     0.29   594.36     0  08:44        0.29
  1559                 JUNCTION    14.77    45.85   623.85     0  09:41       36.84
  1560                 JUNCTION     0.04     0.19   592.97     0  08:47        0.19
  1561                 JUNCTION    14.03    44.30   666.30     0  20:20       38.77
  1562                 JUNCTION     0.04     0.28   642.35     0  21:31        0.28
  1563                 JUNCTION     0.04     0.06   572.99     0  08:00        0.06
  1564                 JUNCTION     0.05     0.07   579.20     0  08:00        0.07
  1565                 JUNCTION     0.07     0.10   581.35     0  08:00        0.10
  1566                 JUNCTION     0.05     0.07   557.80     0  08:01        0.07
  1567                 JUNCTION     0.05     0.07   552.38     0  08:01        0.07
  1568                 JUNCTION     0.07     0.10   583.79     0  08:00        0.10
  1569                 JUNCTION     0.04     0.14   639.22     0  21:32        0.14
  1570                 JUNCTION     0.04     0.13   635.67     0  21:33        0.13
  1571                 JUNCTION     0.08     0.20   591.25     0  08:49        0.19
  1572                 JUNCTION     0.09     0.18   590.27     0  08:49        0.18
  1573                 JUNCTION     0.11     0.20   589.20     0  08:53        0.20
  1574                 JUNCTION     0.00     0.00   552.44     0  00:00        0.00
  1575                 JUNCTION     0.00     0.00   556.91     0  00:00        0.00
  1576                 JUNCTION     0.00     0.00   560.18     0  00:00        0.00
  1577                 JUNCTION     0.04     0.12   633.89     0  21:34        0.12
  1578                 JUNCTION     0.04     0.09   632.09     0  21:36        0.09
  1579                 JUNCTION     0.04     0.08   626.71     0  21:37        0.08
  1580                 JUNCTION     0.04     0.10   620.33     0  21:38        0.10
  1581                 JUNCTION     0.06     0.11   616.46     0  20:55        0.11
  1582                 JUNCTION     0.06     0.11   615.10     0  20:58        0.11
  1583                 JUNCTION     0.06     0.11   614.04     0  20:59        0.11
  1584                 JUNCTION     0.04     0.06   613.47     0  21:00        0.06
  1585                 JUNCTION     0.04     0.07   609.87     0  21:01        0.07
  1586                 JUNCTION     0.11     0.15   515.53     0  08:00        0.15
  1587                 JUNCTION     0.11     0.15   525.43     0  08:00        0.15
  1588                 JUNCTION     0.06     0.08   538.00     0  07:56        0.08
  1589                 JUNCTION     0.08     0.12   541.10     0  07:57        0.12
  1590                 JUNCTION     0.12     0.17   541.81     0  07:40        0.17
  1591                 JUNCTION     0.00     0.00   550.55     0  00:00        0.00
  1592                 JUNCTION     0.00     0.00   555.35     0  00:00        0.00
  1593                 JUNCTION     0.00     0.00   556.65     0  00:00        0.00
  1594                 JUNCTION     0.00     0.00   557.59     0  00:00        0.00
  1595                 JUNCTION     3.70    67.64   616.27     0  00:00        4.01
  1596                 JUNCTION     0.12     0.14   612.67     0  08:00        0.14
  1597                 JUNCTION     0.13     0.15   615.05     0  07:44        0.15
  1598                 JUNCTION     0.08     0.10   616.21     0  08:01        0.10
  1599                 JUNCTION     0.06     0.07   621.45     0  08:00        0.07
  1600                 JUNCTION     0.09     0.11   623.63     0  08:00        0.11
  1601                 JUNCTION     0.08     0.10   624.80     0  08:00        0.10
  1602                 JUNCTION     0.08     0.09   626.93     0  08:00        0.09
  1603                 JUNCTION     0.04     0.05   628.77     0  07:36        0.05
  1604                 JUNCTION     0.05     0.05   629.85     0  07:08        0.05
  1605                 JUNCTION     0.03     0.04   635.04     0  07:53        0.04
  1606                 JUNCTION     0.11     0.13   598.37     0  08:00        0.13
  1607                 JUNCTION     0.10     0.12   599.80     0  08:00        0.12
  1608                 JUNCTION     0.10     0.12   600.83     0  08:00        0.12
  1609                 JUNCTION     0.10     0.12   602.38     0  08:00        0.12
  1610                 JUNCTION     0.09     0.10   605.72     0  08:00        0.10
  1611                 JUNCTION     0.07     0.08   614.10     0  08:00        0.08
  1612                 JUNCTION     0.17     0.20   594.44     0  08:00        0.20
  1613                 JUNCTION     0.17     0.20   595.34     0  08:00        0.20
  1614                 JUNCTION     0.16     0.19   597.17     0  08:01        0.19
  1615                 JUNCTION     0.16     0.19   598.56     0  08:00        0.19
  1616                 JUNCTION     0.16     0.19   599.42     0  08:00        0.19
  1617                 JUNCTION     0.15     0.18   600.87     0  08:00        0.18
  1618                 JUNCTION     0.11     0.13   608.03     0  08:00        0.13
  1619                 JUNCTION     0.13     0.16   611.26     0  08:00        0.16
  1620                 JUNCTION     0.13     0.15   612.72     0  08:00        0.15
  1621                 JUNCTION     0.15     0.17   614.20     0  08:00        0.17
  1622                 JUNCTION     0.15     0.17   615.33     0  07:59        0.17
  1623                 JUNCTION     0.14     0.16   616.16     0  07:48        0.16
  1624                 JUNCTION     0.06     0.08   556.30     0  09:00        0.08
  1625                 JUNCTION     0.11     0.15   558.60     0  09:00        0.15
  1626                 JUNCTION     0.07     0.11   560.10     0  09:00        0.11
  1627                 JUNCTION     0.06     0.08   568.15     0  09:00        0.08
  1628                 JUNCTION     0.08     0.11   569.79     0  09:00        0.11
  1629                 JUNCTION     0.02     0.02   575.75     0  09:00        0.02
  1630                 JUNCTION     0.03     0.04   576.38     0  09:00        0.04
  1631                 JUNCTION     0.00     0.00   577.84     0  00:00        0.00
  1632                 JUNCTION     0.08     0.09   570.73     0  21:01        0.09
  1633                 JUNCTION     0.08     0.09   571.88     0  21:00        0.09
  1634                 JUNCTION     0.08     0.09   573.74     0  21:00        0.09
  1635                 JUNCTION     0.08     0.09   574.97     0  21:00        0.09
  1636                 JUNCTION     0.00     0.00   583.27     0  00:00        0.00
  1637                 JUNCTION     0.00     0.00   585.14     0  00:00        0.00
  1638                 JUNCTION     0.00     0.00   586.94     0  00:00        0.00
  1639                 JUNCTION     0.05     0.06   570.13     0  21:01        0.06
  1640                 JUNCTION     0.04     0.04   575.14     0  21:00        0.04
  1641                 JUNCTION     0.04     0.05   577.51     0  21:00        0.05
  1642                 JUNCTION     0.02     0.02   579.29     0  21:00        0.02
  1643                 JUNCTION     0.04     0.05   582.55     0  21:00        0.05
  1644                 JUNCTION     0.02     0.02   595.26     0  21:00        0.02
  1645                 JUNCTION     0.01     0.02   601.83     0  21:00        0.02
  1646                 JUNCTION     0.03     0.03   603.03     0  21:00        0.03
  1647                 JUNCTION     0.05     0.06   580.43     0  21:00        0.06
  1648                 JUNCTION     0.04     0.05   581.58     0  21:00        0.05
  1649                 JUNCTION     0.03     0.04   586.14     0  21:00        0.04
  1650                 JUNCTION     0.05     0.06   588.35     0  21:00        0.06
  1651                 JUNCTION     0.03     0.04   573.79     0  09:00        0.04
  1652                 JUNCTION     0.04     0.06   595.28     0  09:00        0.06
  1653                 JUNCTION     0.04     0.05   596.58     0  08:59        0.05
  1654                 JUNCTION     0.00     0.00   594.58     0  00:00        0.00
  1655                 JUNCTION     0.00     0.00   596.78     0  00:00        0.00
  1656                 JUNCTION     0.01     0.01   561.01     0  09:00        0.01
  1657                 JUNCTION     0.02     0.03   459.03     0  09:02        0.03
  1658                 JUNCTION     0.11     0.19   558.19     0  23:00        0.19
  1659                 JUNCTION     0.01     0.02   559.02     0  09:00        0.02
  1660                 JUNCTION     0.03     0.03   618.03     0  08:00        0.03
  1661                 JUNCTION     0.02     0.03   652.03     0  08:00        0.03
  1662                 JUNCTION     0.02     0.02   576.02     0  20:43        0.02
  1663                 JUNCTION     0.02     0.02   615.02     0  20:43        0.02
  1664                 JUNCTION     0.01     0.02   602.02     0  08:24        0.02
  1665                 JUNCTION     0.02     0.03   560.03     0  07:37        0.03
  1666                 JUNCTION     0.00     0.00   550.00     0  00:00        0.00
  1667                 JUNCTION     1.07     1.13   526.61     0  08:32        1.13
  1668                 JUNCTION     0.10     0.15   521.16     0  08:33        0.15
  1669                 JUNCTION     0.33     0.40   519.20     0  08:33        0.40
  1670                 JUNCTION     3.34     4.95   565.65     0  08:12        4.95
  1671                 JUNCTION     3.34     4.97   565.67     0  08:12        4.96
  1672                 JUNCTION     2.60     3.92   565.70     0  08:12        3.90
  1673                 JUNCTION     2.04     3.11   565.71     0  08:11        3.09
  1674                 JUNCTION     1.41     2.30   565.86     0  08:05        2.14
  1675                 JUNCTION     0.58     0.94   565.72     0  08:11        0.91
  1676                 JUNCTION     0.12     0.22   567.47     0  07:49        0.22
  1677                 JUNCTION     4.66     6.11   580.81     0  07:50        6.11
  1678                 JUNCTION     5.37     6.91   580.91     0  09:01        6.83
  1679                 JUNCTION     3.99     5.70   581.15     0  09:01        5.41
  1680                 JUNCTION     4.30     5.95   581.40     0  09:01        5.45
  1681                 JUNCTION     3.77     5.46   581.44     0  09:01        4.93
  1682                 JUNCTION     2.17     3.64   581.44     0  09:01        3.10
  1683                 JUNCTION     0.27     0.47   578.87     0  22:29        0.47
  1684                 JUNCTION     0.27     0.47   578.51     0  22:30        0.47
  1685                 JUNCTION     0.29     0.50   578.10     0  22:30        0.50
  1686                 JUNCTION     0.27     0.48   580.38     0  22:27        0.47
  1687                 JUNCTION     0.03     0.03   580.03     0  20:03        0.03
  1688                 JUNCTION    13.67    83.86   667.86     0  07:18       78.51
  1689                 JUNCTION     0.04     0.17   603.17     0  20:11        0.16
  1690                 JUNCTION     0.00     0.00   605.94     0  00:00        0.00
  1691                 JUNCTION     0.03     0.05   633.14     0  09:00        0.05
  1692                 JUNCTION     0.02     0.07   591.04     0  19:28        0.07
  1693                 JUNCTION    29.98    90.49   686.82     0  13:20       85.96
  1694                 JUNCTION     0.05     0.23   633.52     0  19:32        0.19
  1695                 JUNCTION     0.01     0.10   632.57     0  09:00        0.10
  1696                 JUNCTION     0.08     0.24   599.49     0  19:38        0.24
  1697                 JUNCTION     0.11     0.14   579.58     0  08:48        0.14
  1698                 JUNCTION     0.00     0.00   581.64     0  00:00        0.00
  1699                 JUNCTION     0.00     0.00   582.90     0  00:00        0.00
  1700                 JUNCTION     0.00     0.00   584.00     0  00:00        0.00
  1701                 JUNCTION     0.00     0.00   584.58     0  00:00        0.00
  1702                 JUNCTION     0.00     0.00   585.20     0  00:00        0.00
  1703                 JUNCTION     0.00     0.00   608.89     0  00:00        0.00
  1704                 JUNCTION     0.00     0.00   602.60     0  00:00        0.00
  1705                 JUNCTION     0.04     0.15   629.37     0  19:32        0.14
  1714                 JUNCTION     0.40     0.56   548.44     0  09:15        0.55
  1716                 JUNCTION     0.42     0.57   523.77     0  09:04        0.57
  1718                 JUNCTION     0.42     0.57   525.52     0  09:03        0.57
  1720                 JUNCTION     0.33     0.45   529.02     0  09:01        0.45
  1722                 JUNCTION     0.44     0.60   530.37     0  09:01        0.60
  1724                 JUNCTION     0.42     0.57   527.10     0  09:01        0.57
  1726                 JUNCTION     0.42     0.57   526.35     0  09:02        0.57
  1728                 JUNCTION     0.42     0.57   531.10     0  09:00        0.57
  1730                 JUNCTION     0.42     0.57   532.06     0  09:00        0.57
  1732                 JUNCTION     0.41     0.57   522.45     0  09:04        0.57
  1734                 JUNCTION     0.51     0.68   522.29     0  09:05        0.68
  2000                 JUNCTION     0.03     0.08   551.55     0  00:05        0.08
  2002                 JUNCTION     0.04     0.10   552.09     0  00:03        0.09
  2004                 JUNCTION     0.04     0.15   552.55     0  00:01        0.07
  2006                 JUNCTION     0.03     0.05   553.67     0  07:14        0.05
  2008                 JUNCTION     0.04     0.05   554.56     0  07:06        0.05
  2016                 JUNCTION     0.00     0.00   556.55     0  00:00        0.00
  2018                 JUNCTION     0.00     0.00   556.65     0  00:00        0.00
  2020                 JUNCTION     4.24   654.49  1217.42     0  00:13      375.03
  2022                 JUNCTION     1.03     2.50   562.00     0  19:10        2.49
  2050                 JUNCTION     7.90     9.63   579.85     0  15:52        9.60
  2052                 JUNCTION     7.52     9.16   579.81     0  19:18        9.16
  2054                 JUNCTION     0.41     0.57   547.69     0  09:16        0.57
  2056                 JUNCTION     0.62     1.10   504.17     0  08:47        1.09
  2058                 JUNCTION     0.28     0.43   504.79     0  08:40        0.43
  2060                 JUNCTION     0.28     0.43   505.37     0  08:39        0.43
  2062                 JUNCTION     0.28     0.43   507.78     0  08:37        0.43
  2064                 JUNCTION     0.28     0.43   509.12     0  08:36        0.43
  2066                 JUNCTION     0.28     0.43   509.30     0  08:35        0.43
  2068                 JUNCTION     0.28     0.43   505.68     0  08:39        0.43
  829                  JUNCTION     0.34     0.51   499.35     0  08:47        0.51
  830                  JUNCTION     0.33     0.48   498.26     0  08:48        0.48
  831                  JUNCTION     0.37     0.50   552.41     0  08:51        0.50
  832                  JUNCTION     0.37     0.50   551.77     0  08:51        0.50
  833                  JUNCTION     0.35     0.47   555.50     0  22:50        0.47
  834                  JUNCTION     0.27     0.32   559.02     0  08:26        0.32
  835                  JUNCTION     0.31     0.38   558.87     0  09:03        0.38
  836                  JUNCTION     0.02     0.35   646.53     0  19:11        0.35
  837                  JUNCTION     0.11     0.16   568.84     0  08:43        0.16
  838                  JUNCTION     0.33     0.47   564.97     0  22:42        0.46
  839                  JUNCTION     0.00     0.01   587.83     0  07:16        0.01
  840                  JUNCTION     0.13     0.19   587.83     0  07:21        0.19
  841                  JUNCTION     0.01     0.01   629.97     0  18:06        0.01
  842                  JUNCTION     0.05     0.10   620.64     0  13:04        0.10
  843                  JUNCTION     0.18     0.22   583.01     0  21:07        0.22
  844                  JUNCTION     0.18     0.22   581.92     0  21:15        0.22
  845                  JUNCTION     0.11     0.16   528.47     0  08:32        0.16
  846                  JUNCTION     0.13     0.15   597.09     0  08:00        0.15
  847                  JUNCTION     0.21     0.25   596.29     0  08:00        0.25
  848                  JUNCTION     0.21     0.24   595.82     0  08:00        0.24
  849                  JUNCTION     0.21     0.25   595.15     0  08:00        0.25
  850                  JUNCTION     0.21     0.25   594.07     0  08:00        0.25
  851                  JUNCTION     0.21     0.25   593.47     0  08:00        0.25
  852                  JUNCTION     0.21     0.25   592.99     0  08:01        0.25
  853                  JUNCTION     0.22     0.26   592.86     0  08:00        0.26
  854                  JUNCTION     0.24     0.29   591.83     0  08:00        0.29
  855                  JUNCTION     0.20     0.24   590.73     0  08:00        0.24
  856                  JUNCTION     0.27     0.33   589.43     0  08:00        0.33
  857                  JUNCTION     0.24     0.29   588.39     0  08:02        0.29
  858                  JUNCTION     0.25     0.30   586.96     0  08:00        0.30
  859                  JUNCTION     0.26     0.31   586.28     0  08:00        0.31
  860                  JUNCTION     0.26     0.32   585.52     0  08:01        0.32
  861                  JUNCTION     0.26     0.32   584.32     0  08:00        0.32
  862                  JUNCTION     0.27     0.33   583.11     0  08:02        0.33
  863                  JUNCTION     0.26     0.31   582.08     0  08:07        0.31
  864                  JUNCTION     0.30     0.35   580.84     0  08:00        0.35
  865                  JUNCTION     0.29     0.35   579.23     0  08:01        0.35
  866                  JUNCTION     0.30     0.36   577.65     0  08:03        0.36
  867                  JUNCTION     0.30     0.36   576.77     0  08:05        0.36
  868                  JUNCTION     0.31     0.37   576.09     0  08:06        0.37
  869                  JUNCTION     0.32     0.38   575.45     0  08:08        0.38
  870                  JUNCTION     0.31     0.37   574.83     0  08:11        0.37
  871                  JUNCTION     0.32     0.38   574.25     0  08:12        0.38
  872                  JUNCTION     0.31     0.37   573.65     0  08:15        0.37
  873                  JUNCTION     0.31     0.37   573.11     0  08:16        0.37
  874                  JUNCTION     0.31     0.37   572.52     0  08:19        0.37
  875                  JUNCTION     0.31     0.37   571.92     0  08:21        0.37
  876                  JUNCTION     0.32     0.38   571.33     0  08:22        0.38
  877                  JUNCTION     0.31     0.38   570.73     0  08:25        0.38
  878                  JUNCTION     0.32     0.38   570.13     0  08:26        0.38
  879                  JUNCTION     0.32     0.38   568.57     0  08:32        0.38
  880                  JUNCTION     1.24     1.36   568.45     0  08:43        1.36
  881                  JUNCTION     0.24     0.29   567.89     0  08:44        0.29
  882                  JUNCTION     0.38     0.45   566.34     0  08:08        0.45
  883                  JUNCTION     0.36     0.43   565.44     0  08:11        0.43
  884                  JUNCTION     0.43     0.51   564.36     0  08:12        0.51
  885                  JUNCTION     0.40     0.48   562.71     0  08:24        0.48
  886                  JUNCTION     0.26     0.31   559.69     0  08:25        0.31
  887                  JUNCTION     0.29     0.36   557.48     0  09:05        0.36
  888                  JUNCTION     0.28     0.36   555.90     0  09:08        0.36
  889                  JUNCTION     0.31     0.40   555.52     0  09:00        0.40
  890                  JUNCTION     0.31     0.40   553.36     0  09:00        0.40
  891                  JUNCTION     0.36     0.47   552.91     0  09:01        0.47
  892                  JUNCTION     0.39     0.52   552.23     0  09:00        0.52
  893                  JUNCTION     0.37     0.49   551.85     0  09:00        0.49
  894                  JUNCTION     0.37     0.49   551.67     0  09:00        0.49
  895                  JUNCTION     0.37     0.50   551.08     0  09:00        0.50
  896                  JUNCTION     0.38     0.51   550.27     0  09:00        0.51
  897                  JUNCTION     0.37     0.50   549.82     0  09:01        0.50
  898                  JUNCTION     0.37     0.50   549.23     0  09:01        0.50
  899                  JUNCTION     0.37     0.50   549.12     0  09:01        0.50
  900                  JUNCTION     0.63     0.84   547.43     0  09:18        0.83
  901                  JUNCTION     0.39     0.55   546.92     0  09:19        0.55
  902                  JUNCTION     0.33     0.47   544.76     0  09:21        0.46
  903                  JUNCTION     0.34     0.47   543.05     0  09:23        0.47
  904                  JUNCTION     0.34     0.47   537.22     0  09:25        0.47
  905                  JUNCTION     0.34     0.47   537.10     0  09:25        0.47
  906                  JUNCTION     0.35     0.48   535.55     0  09:26        0.48
  907                  JUNCTION     0.39     0.52   534.41     0  09:26        0.52
  908                  JUNCTION     0.40     0.55   534.04     0  09:29        0.55
  909                  JUNCTION     0.38     0.52   528.12     0  09:34        0.52
  910                  JUNCTION     0.42     0.58   523.78     0  09:00        0.58
  911                  JUNCTION     0.47     0.66   521.51     0  09:04        0.66
  912                  JUNCTION     1.27     1.57   521.66     0  09:07        1.57
  913                  JUNCTION     0.02     0.04   533.04     0  23:00        0.04
  914                  JUNCTION     0.00     0.00   561.00     0  00:00        0.00
  915                  JUNCTION     0.09     0.14   548.86     0  07:46        0.14
  916                  JUNCTION     0.11     0.17   545.72     0  07:47        0.17
  917                  JUNCTION     0.09     0.14   544.11     0  07:48        0.14
  918                  JUNCTION     0.11     0.16   543.48     0  07:48        0.16
  919                  JUNCTION     0.11     0.16   542.39     0  07:49        0.16
  920                  JUNCTION     0.13     0.19   539.61     0  08:30        0.19
  921                  JUNCTION     0.10     0.16   538.36     0  08:31        0.16
  922                  JUNCTION     0.10     0.16   534.55     0  08:32        0.16
  924                  JUNCTION     0.13     0.19   508.75     0  08:34        0.19
  925                  JUNCTION     0.16     0.24   503.63     0  08:37        0.24
  926                  JUNCTION     0.18     0.27   499.67     0  08:37        0.27
  927                  JUNCTION     0.37     0.55   497.77     0  08:49        0.55
  928                  JUNCTION     0.23     0.34   494.84     0  08:49        0.34
  929                  JUNCTION     0.24     0.36   489.94     0  08:51        0.36
  930                  JUNCTION     0.25     0.37   481.29     0  08:51        0.37
  931                  JUNCTION     0.30     0.45   476.52     0  08:55        0.45
  932                  JUNCTION     0.23     0.35   471.72     0  08:37        0.35
  933                  JUNCTION     2.54     3.77   471.82     0  08:33        3.75
  934                  JUNCTION     5.91     7.56   471.83     0  08:34        7.53
  936                  JUNCTION     0.16     0.19   597.70     0  07:25        0.19
  937                  JUNCTION     0.18     0.21   597.57     0  08:00        0.21
  938                  JUNCTION     0.17     0.20   592.73     0  08:00        0.20
  939                  JUNCTION     0.16     0.19   592.43     0  08:00        0.19
  940                  JUNCTION     0.17     0.20   591.19     0  08:00        0.20
  941                  JUNCTION     0.24     0.28   589.84     0  08:00        0.28
  942                  JUNCTION     0.21     0.24   587.80     0  08:00        0.24
  943                  JUNCTION     0.20     0.24   586.14     0  08:00        0.24
  944                  JUNCTION     0.22     0.26   585.08     0  08:00        0.26
  945                  JUNCTION     0.21     0.25   584.32     0  08:01        0.25
  946                  JUNCTION     0.19     0.23   583.14     0  08:03        0.23
  947                  JUNCTION     0.21     0.25   581.44     0  08:02        0.25
  948                  JUNCTION     0.15     0.18   577.65     0  08:02        0.18
  949                  JUNCTION     0.19     0.23   575.81     0  08:02        0.23
  950                  JUNCTION     0.18     0.21   573.65     0  08:03        0.21
  951                  JUNCTION     0.19     0.23   571.33     0  08:04        0.23
  952                  JUNCTION     0.11     0.13   609.76     0  07:32        0.13
  953                  JUNCTION     0.17     0.20   607.95     0  08:00        0.20
  954                  JUNCTION     0.11     0.13   606.38     0  08:00        0.13
  955                  JUNCTION     0.08     0.10   589.63     0  08:00        0.10
  956                  JUNCTION     0.10     0.12   583.01     0  08:00        0.12
  957                  JUNCTION     0.23     0.26   578.26     0  08:18        0.26
  958                  JUNCTION     0.09     0.12   575.01     0  08:32        0.12
  959                  JUNCTION     0.12     0.16   571.45     0  08:40        0.16
  960                  JUNCTION     0.14     0.18   571.13     0  08:30        0.18
  961                  JUNCTION     0.12     0.16   570.33     0  08:43        0.16
  962                  JUNCTION     0.12     0.16   569.17     0  08:46        0.16
  963                  JUNCTION     0.14     0.19   569.10     0  08:52        0.19
  964                  JUNCTION     0.15     0.20   568.15     0  09:00        0.20
  965                  JUNCTION     0.17     0.23   567.78     0  08:56        0.23
  966                  JUNCTION     0.13     0.18   567.33     0  09:01        0.18
  967                  JUNCTION     0.17     0.22   566.57     0  09:00        0.22
  968                  JUNCTION     0.16     0.21   565.87     0  09:00        0.21
  969                  JUNCTION     0.19     0.27   564.12     0  09:00        0.27
  970                  JUNCTION     0.20     0.28   562.91     0  09:01        0.28
  971                  JUNCTION     0.11     0.16   561.61     0  09:01        0.16
  972                  JUNCTION     0.09     0.26   605.66     0  22:23        0.25
  973                  JUNCTION     0.10     0.26   604.72     0  22:26        0.25
  974                  JUNCTION     0.11     0.25   603.87     0  22:30        0.24
  975                  JUNCTION     0.12     0.25   602.99     0  22:33        0.25
  976                  JUNCTION     0.13     0.24   601.94     0  22:40        0.24
  977                  JUNCTION     0.12     0.19   594.05     0  08:20        0.19
  978                  JUNCTION     0.15     0.23   592.49     0  08:22        0.23
  979                  JUNCTION     0.15     0.24   591.71     0  08:23        0.24
  980                  JUNCTION     0.17     0.26   591.41     0  08:26        0.26
  981                  JUNCTION     0.16     0.25   590.40     0  08:27        0.25
  982                  JUNCTION     0.22     0.32   589.96     0  08:35        0.32
  983                  JUNCTION     0.13     0.20   588.46     0  08:35        0.20
  984                  JUNCTION     0.17     0.25   588.20     0  08:35        0.25
  985                  JUNCTION     0.17     0.25   587.56     0  08:38        0.25
  986                  JUNCTION     0.14     0.20   586.78     0  08:39        0.20
  987                  JUNCTION     0.19     0.27   586.27     0  08:40        0.27
  988                  JUNCTION     0.16     0.24   585.79     0  08:42        0.24
  989                  JUNCTION     0.16     0.23   585.29     0  08:43        0.23
  990                  JUNCTION     0.21     0.30   584.84     0  08:47        0.30
  991                  JUNCTION     0.18     0.26   584.16     0  08:48        0.26
  992                  JUNCTION     0.09     0.13   583.23     0  08:49        0.13
  993                  JUNCTION     0.12     0.18   579.33     0  08:51        0.18
  994                  JUNCTION     0.17     0.24   574.86     0  08:54        0.24
  995                  JUNCTION     0.17     0.25   572.88     0  08:56        0.25
  996                  JUNCTION     0.11     0.17   571.64     0  08:57        0.16
  997                  JUNCTION     0.12     0.18   566.76     0  08:58        0.18
  998                  JUNCTION     8.27    10.02   579.83     0  22:04       10.00
  999                  JUNCTION     8.66    10.41   579.79     0  05:27       10.41
  935                  OUTFALL      0.00     0.00   458.80     0  00:00        0.00
[...]
  827                     1.00   0.00  0.00  0.00  1.00  0.00  0.00  0.00  0.96  0.00
  828                     1.00   0.00  1.00  0.00  0.00  0.00  0.00  0.00  0.00  0.00
  83                      1.00   0.00  0.00  0.00  0.00  0.00  0.00  1.00  0.00  0.00
  830                     1.00   0.00  0.00  0.00  0.00  0.00  0.00  1.00  0.00  0.00
  831                     1.00   0.02  0.00  0.00  0.00  0.00  0.00  0.98  0.00  0.00
  832                     1.00   0.00  0.00  0.00  0.00  1.00  0.00  0.00  1.00  0.00
  833                     1.00   0.00  0.00  0.00  1.00  0.00  0.00  0.00  1.00  0.00
  834                     1.00   0.00  0.00  0.00  1.00  0.00  0.00  0.00  1.00  0.00
  835                     1.00   0.00  0.00  0.00  1.00  0.00  0.00  0.00  1.00  0.00
  836                     1.00   0.00  0.00  0.00  1.00  0.00  0.00  0.00  1.00  0.00
  837                     1.00   0.00  0.00  0.00  1.00  0.00  0.00  0.00  1.00  0.00
  838                     1.00   0.00  0.00  0.00  1.00  0.00  0.00  0.00  1.00  0.00
  839                     1.00   0.00  1.00  0.00  0.00  0.00  0.00  0.00  0.00  0.00
  84                      1.00   0.00  0.00  0.00  0.00  0.00  0.00  1.00  0.00  0.00
  840                     1.00   0.00  0.00  0.00  0.00  0.00  0.00  1.00  0.00  0.00
  841                     1.00   0.00  0.00  0.00  0.97  0.00  0.00  0.03  0.00  0.00
  842                     1.00   0.00  0.00  0.00  1.00  0.00  0.00  0.00  0.99  0.00
  843                     1.00   0.00  0.02  0.00  0.98  0.00  0.00  0.00  0.96  0.00
  844                     1.00   0.00  0.00  0.00  1.00  0.00  0.00  0.00  0.75  0.00
  845                     1.00   0.00  0.00  0.00  1.00  0.00  0.00  0.00  1.00  0.00
  846                     1.00   0.02  0.00  0.00  0.00  0.98  0.00  0.00  0.79  0.00
  847                     1.00   0.02  0.00  0.00  0.98  0.00  0.00  0.00  0.98  0.00
  848                     1.00   0.35  0.00  0.00  0.00  0.00  0.00  0.65  0.00  0.00
  849                     1.00   0.32  0.00  0.00  0.68  0.00  0.00  0.00  0.00  0.00
  85                      1.00   0.01  0.00  0.00  0.00  0.00  0.00  0.99  0.00  0.00
  850                     1.00   0.32  0.00  0.00  0.68  0.00  0.00  0.00  0.01  0.00
  851                     1.00   0.32  0.00  0.00  0.68  0.00  0.00  0.00  0.02  0.00
  852                     1.00   0.32  0.00  0.00  0.66  0.00  0.00  0.02  0.01  0.00
  853                     1.00   0.31  0.00  0.00  0.69  0.00  0.00  0.00  0.04  0.00
  854                     1.00   0.31  0.00  0.00  0.00  0.00  0.00  0.69  0.00  0.00
  855                     1.00   0.31  0.00  0.00  0.00  0.00  0.00  0.69  0.00  0.00
  856                     1.00   0.06  0.00  0.00  0.93  0.00  0.00  0.00  0.02  0.00
  857                     1.00   0.01  0.00  0.00  0.98  0.00  0.00  0.00  0.07  0.00
  858                     1.00   0.01  0.00  0.00  0.98  0.00  0.00  0.00  0.22  0.00
  859                     1.00   0.00  0.00  0.00  1.00  0.00  0.00  0.00  0.00  0.00
  86                      1.00   0.00  0.00  0.00  0.00  0.00  0.00  1.00  0.00  0.00
  860                     1.00   0.00  0.00  0.00  0.70  0.00  0.00  0.29  0.01  0.00
  861                     1.00   0.00  0.00  0.00  0.00  1.00  0.00  0.00  0.00  0.00
  862                     1.00   0.18  0.00  0.00  0.00  0.00  0.00  0.82  0.00  0.00
  863                     1.00   0.10  0.85  0.00  0.00  0.00  0.05  0.00  0.00  0.00
  864                     1.00   1.00  0.00  0.00  0.00  0.00  0.00  0.00  0.00  0.00
  865                     1.00   0.00  0.00  0.00  0.00  0.00  0.00  1.00  0.00  0.00
  866                     1.00   0.00  0.00  0.00  1.00  0.00  0.00  0.00  1.00  0.00
  867                     1.00   0.00  0.00  0.00  0.00  0.00  0.00  1.00  0.00  0.00
  868                     1.00   0.17  0.52  0.00  0.26  0.00  0.05  0.00  0.43  0.00
  869                     1.00   0.30  0.00  0.00  0.19  0.03  0.00  0.48  0.50  0.00
  87                      1.00   0.00  0.00  0.00  0.00  0.00  0.00  1.00  0.00  0.00
  870                     1.00   1.00  0.00  0.00  0.00  0.00  0.00  0.00  0.00  0.00
  872                     1.00   1.00  0.00  0.00  0.00  0.00  0.00  0.00  0.00  0.00
  873                     1.00   1.00  0.00  0.00  0.00  0.00  0.00  0.00  0.00  0.00
  874                     1.00   1.00  0.00  0.00  0.00  0.00  0.00  0.00  0.00  0.00
  875                     1.00   0.00  0.00  0.00  1.00  0.00  0.00  0.00  1.00  0.00
  876                     1.00   1.00  0.00  0.00  0.00  0.00  0.00  0.00  0.00  0.00
  877                     1.00   1.00  0.00  0.00  0.00  0.00  0.00  0.00  0.00  0.00
  878                     1.00   0.00  0.00  0.00  0.00  0.00  0.00  1.00  0.00  0.00
  879                     1.00   0.00  0.00  0.00  0.00  0.00  0.00  1.00  0.00  0.00
  88                      1.00   0.00  0.00  0.00  0.00  0.00  0.00  1.00  0.00  0.00
  880                     1.00   1.00  0.00  0.00  0.00  0.00  0.00  0.00  0.00  0.00
  881                     1.00   0.00  0.00  0.00  1.00  0.00  0.00  0.00  1.00  0.00
  89                      1.00   0.00  0.00  0.00  0.00  0.00  0.00  1.00  0.00  0.00
  894                     1.00   0.01  0.00  0.00  0.00  0.00  0.00  0.99  0.00  0.00
  896                     1.00   0.31  0.00  0.00  0.00  0.00  0.00  0.69  0.00  0.00
  898                     1.00   0.00  0.00  0.00  1.00  0.00  0.00  0.00  0.05  0.00
  9                       1.00   1.00  0.00  0.00  0.00  0.00  0.00  0.00  0.00  0.00
  90                      1.00   0.00  0.00  0.00  0.00  0.00  0.00  1.00  0.00  0.00
  900                     1.00   0.00  0.00  0.00  1.00  0.00  0.00  0.00  0.28  0.00
  902                     1.00   0.00  0.00  0.00  0.99  0.00  0.00  0.00  0.98  0.00
  904                     1.00   0.00  0.00  0.00  0.00  0.99  0.00  0.00  0.00  0.00
  906                     1.00   0.00  0.00  0.00  0.00  0.99  0.00  0.00  0.99  0.00
  908                     1.00   0.00  0.00  0.00  0.99  0.00  0.00  0.00  0.09  0.00
  91                      1.00   0.26  0.74  0.00  0.00  0.00  0.00  0.00  0.00  0.00
  910                     1.00   0.01  0.00  0.00  0.99  0.00  0.00  0.00  0.42  0.00
  912                     1.00   0.01  0.00  0.00  0.99  0.01  0.00  0.00  0.74  0.00
  914                     1.00   0.01  0.00  0.00  0.99  0.00  0.00  0.00  0.04  0.00
  916                     1.00   0.01  0.00  0.00  0.00  0.00  0.00  0.99  0.00  0.00
  918                     1.00   0.01  0.01  0.00  0.00  0.00  0.00  0.98  0.00  0.00
  92                      1.00   0.00  0.00  0.00  0.00  0.00  0.00  1.00  0.00  0.00
  93                      1.00   0.00  0.00  0.00  0.00  0.00  0.00  1.00  0.00  0.00
  94                      1.00   0.00  0.00  0.00  0.00  0.00  0.00  1.00  0.00  0.00
  95                      1.00   0.00  0.00  0.00  0.00  0.00  0.00  1.00  0.00  0.00
  950                     1.00   0.12  0.79  0.00  0.05  0.00  0.03  0.00  0.32  0.00
  952                     1.00   0.00  0.00  0.00  0.90  0.00  0.00  0.10  0.02  0.00
  954                     1.00   0.00  0.00  0.00  0.88  0.00  0.00  0.12  0.01  0.00
  956                     1.00   0.01  0.00  0.00  0.98  0.00  0.00  0.02  0.97  0.00
  958                     1.00   0.01  0.00  0.00  0.00  0.00  0.00  0.99  0.00  0.00
  96                      1.00   0.00  0.00  0.00  0.00  0.00  0.00  1.00  0.00  0.00
  960                     1.00   0.01  0.00  0.00  0.85  0.00  0.00  0.15  0.78  0.00
  962                     1.00   0.00  0.00  0.00  0.00  0.00  0.00  1.00  0.00  0.00
  964                     1.00   0.00  0.00  0.00  0.00  0.00  0.00  1.00  0.00  0.00
  966                     1.00   0.00  0.00  0.00  0.00  0.00  0.00  1.00  0.00  0.00
  968                     1.00   0.00  0.00  0.00  0.00  0.00  0.00  1.00  0.00  0.00
  97                      1.00   0.00  0.00  0.00  0.00  0.00  0.00  1.00  0.00  0.00
  970                     1.00   0.00  0.00  0.00  1.00  0.00  0.00  0.00  0.75  0.00
  98                      1.00   0.00  0.00  0.00  1.00  0.00  0.00  0.00  1.00  0.00
  99                      1.00   0.00  0.00  0.00  0.99  0.01  0.00  0.00  0.89  0.00
  MS-11-2                 1.00   0.00  0.00  0.00  0.00  1.00  0.00  0.00  0.19  0.00
  MS1                     1.00   0.00  0.00  0.00  0.00  1.00  0.00  0.00  0.30  0.00
  MS10                    1.00   0.00  0.00  0.00  0.99  0.01  0.00  0.00  0.00  0.00
  MS2                     1.00   1.00  0.00  0.00  0.00  0.00  0.00  0.00  0.00  0.00
  MS3                     1.00   0.00  0.00  0.00  0.00  1.00  0.00  0.00  0.35  0.00
  MS4                     1.00   0.00  0.00  0.00  0.00  1.00  0.00  0.00  0.00  0.00
  MS5                     1.00   0.00  0.00  0.00  0.00  1.00  0.00  0.00  0.01  0.00
  MS6                     1.00   0.00  0.00  0.00  0.00  1.00  0.00  0.00  0.09  0.00
  MS7                     1.00   0.00  0.00  0.00  1.00  0.00  0.00  0.00  0.00  0.00
  MS8                     1.00   0.01  0.00  0.00  0.00  0.99  0.00  0.00  0.33  0.00
  MS9                     1.00   0.00  0.00  0.00  0.00  1.00  0.00  0.00  0.28  0.00
  
  
  *************************
  Conduit Surcharge Summary
  *************************
  
  ----------------------------------------------------------------------------
                                                           Hours        Hours 
                         --------- Hours Full --------   Above Full   Capacity
  Conduit                Both Ends  Upstream  Dnstream   Normal Flow   Limited
  ----------------------------------------------------------------------------
  1010                        0.01      0.01     22.99      0.01         0.01
  1024                        0.01      0.34     19.64      0.32         0.01
  1026                       13.47     13.47     22.97      0.01         0.01
  147                         0.01      0.01     19.36      0.01         0.01
  148                        13.06     13.06     23.00      0.01         0.01
  149                         2.99      2.99      9.82      0.01         0.01
  150                         0.01      0.01      4.50      0.01         0.01
  16                          0.01      0.01     19.01      0.01         0.01
  174                         0.01      0.01     22.71      0.01         0.01
  175                         0.01      0.01     11.60      0.01         0.01
  188                         0.01      0.01      9.30      0.01         0.01
  197                        21.64     21.64     23.00      0.01         0.01
  198                         0.01      0.01     22.55      0.01         0.01
  20                          0.01      0.01     12.60      0.49         0.01
  21                          0.01      0.01      2.88      0.01         0.01
  281                         0.01      0.01     23.00      0.01         0.01
  299                        21.37     21.37     22.13      0.01         0.01
  300                        20.33     20.33     21.23      0.01         0.01
  301                        20.06     20.06     20.41      0.01         0.01
  36                          0.01      0.01     18.31      0.63         0.01
  365                         0.01      0.01     14.56      0.01         0.01
  37                          0.01      0.01     20.69      0.73         0.01
  385                         0.01      0.01     22.98      0.01         0.01
  397                         0.01      0.01      0.01      1.94         0.01
  469                         0.01      0.01     20.71      0.01         0.01
  47                          0.01      0.01     23.00      0.01         0.01
  470                         0.01      0.01     13.97      0.01         0.01
  479                         0.01      0.01     20.15      1.83         0.01
  490                        14.59     14.59     15.80      0.01         0.01
  491                        15.80     15.80     19.56      0.01         0.01
  498                         0.01      0.01     21.52      0.01         0.01
  499                         6.33      6.33     22.85      0.01         0.01
  500                         5.92      5.92      6.31      0.01         0.01
  501                         5.55      5.55      5.92      0.01         0.01
  502                         5.07      5.07      5.55      0.01         0.01
  503                         3.80      3.80      5.07      0.01         0.01
  504                         2.95      2.95      3.80      0.01         0.01
  505                         1.68      1.68      2.95      0.01         0.01
  506                         0.01      0.01      1.68      0.01         0.01
  547                         0.01      0.01     22.58      0.01         0.01
  567                         1.20      1.20     14.41      0.01         0.01
  577                         0.01      0.01     20.77      0.01         0.01
  724                         0.01      0.01     18.73      0.01         0.01
  731                         0.01      0.01     17.92      0.01         0.01
  813                         0.01      0.01     22.99      0.01         0.01
  822                         0.01      0.01     23.00      0.01         0.01
  833                         0.01      0.01     23.00      0.01         0.01
  834                         0.01      0.01     23.00      0.01         0.01
  835                         0.01      0.01     23.00      0.01         0.01
  836                         0.01      0.01     23.00      0.01         0.01
  837                         0.01      0.01     23.00      0.01         0.01
  838                         0.01      0.01     23.00      0.01         0.01
  849                        15.38     15.38     15.44      0.01         0.01
  850                        15.25     15.25     15.44      0.01         0.01
  851                        15.11     15.11     15.26      0.01         0.01
  852                        14.92     14.92     15.09      0.01         0.01
  853                         0.01      0.01     15.00      0.01         0.01
  856                        16.77     16.77     20.32      0.01         0.01
  857                        16.73     16.73     21.82      0.01         0.01
  858                        15.99     15.99     16.73      0.01         0.01
  859                        22.70     22.70     22.80      0.01         0.01
  860                        15.93     15.93     15.94      0.01         0.01
  863                         0.01      0.01     18.77      1.11         0.01
  866                         0.01      0.01     22.99      0.01         0.01
  868                         0.01      0.01     17.18      0.71         0.01
  881                         0.01      0.01     23.00      0.01         0.01
  950                         0.08      0.08     20.13      0.65         0.01
  952                        19.47     19.47     19.75      0.01         0.01
  954                        19.26     19.26     19.39      0.01         0.01
  
  
  ***************
  Pumping Summary
  ***************
  
  ---------------------------------------------------------------------------------------------------------
                                                  Min       Avg       Max     Total     Power    % Time Off
                        Percent   Number of      Flow      Flow      Flow    Volume     Usage    Pump Curve
  Pump                 Utilized   Start-Ups       GPM       GPM       GPM  10^6 gal     Kw-hr    Low   High
  ---------------------------------------------------------------------------------------------------------
  1274-B                   0.00           0      0.00      0.00      0.00     0.000      0.00    0.0    0.0
  1276-B                   2.81          10      0.00      3.42      6.50     0.000      0.01    0.0    2.2
  1600                     4.91          18      0.00     78.03    730.00     0.005      1.32    0.0    0.8
  1600B                    4.91          18      0.00     78.03    730.00     0.005      1.32    0.0    0.8
  1601                     3.31          26      0.00    180.14   1000.00     0.008      2.17    0.0    1.0
  1601B                    0.00           0      0.00      0.00      0.00     0.000      0.00    0.0    0.0
  1607                     2.35           1      0.00     49.97     50.00     0.002      1.07    0.0    0.0
  P-1020                   1.27           8      0.00   2000.00   2000.00     0.035      0.52    0.0  100.0
  P-1021                   1.27           8      0.00   2250.00   2250.00     0.039      0.58    0.0  100.0
  P-1109                   4.13           6      0.00    513.16   1500.00     0.027      8.16    0.0    8.9
  P-1109B                  4.13           6      0.00    513.16   1500.00     0.027      8.16    0.0    8.9
  P-1123                  16.09          35      0.00    807.39   1625.00     0.179     57.93    0.0    1.7
  P-1123B                  0.03           1      0.00   1625.00   1625.00     0.001      0.01    0.0  100.0
  P-1150                   0.00           0      0.00      0.00      0.00     0.000      0.00    0.0    0.0
  P-1150B                 13.83          36      0.00    383.96    800.00     0.073     16.80    0.0    2.1
  P-1250                  15.02          25      0.00    452.63    800.00     0.094     19.82    0.0    3.0
  P-1250B                  0.00           0      0.00      0.00      0.00     0.000      0.00    0.0    0.0
  P-1274                   3.22          28      0.00    789.74    800.00     0.035      4.14    0.0   94.5
  P-1276                   2.81          10      0.00    341.59    650.00     0.013      1.20    0.0    2.2
  P-1290                   1.32           7      0.00    410.57    750.00     0.008      0.80    0.0   44.3
  P-1290B                  0.00           0      0.00      0.00      0.00     0.000      0.00    0.0    0.0
  P-1291                   2.85           6      0.00     99.48    100.00     0.004      0.66    0.0   97.5
  P-1291B                  0.00           0      0.00      0.00      0.00     0.000      0.00    0.0    0.0
  P-1310                   8.04          18      0.00    123.70    325.00     0.014      1.59    0.0    1.0
  P-1310B                  0.00           0      0.00      0.00      0.00     0.000      0.00    0.0    0.0
  P-1329                  69.39          41      0.00    477.24    975.00     0.456    134.68    0.0    0.7
  P-1329B                 69.39          41      0.00    477.24    975.00     0.456    134.68    0.0    0.7
  P-1554                   7.12          24      0.00     79.35    400.00     0.008      1.12    0.0    1.5
  P-1554B                  0.00           0      0.00      0.00      0.00     0.000      0.00    0.0    0.0
  P-1559                   2.94          15      0.00    177.37    410.00     0.007      1.03    0.0    1.3
  P-1559B                  0.00           0      0.00      0.00      0.00     0.000      0.00    0.0    0.0
  P-1561                   4.21          43      0.00    200.68    400.00     0.012      1.40    0.0    5.8
  P-1561B                  0.00           0      0.00      0.00      0.00     0.000      0.00    0.0    0.0
  P-1595                   0.08           1      0.00     84.75    100.00     0.000      0.01    0.0   23.1
  P-1595B                  0.08           1      0.00     84.75    100.00     0.000      0.01    0.0   23.1
  P-913                    0.00           0      0.00      0.00      0.00     0.000      0.00    0.0    0.0
  P-913B                   0.00           0      0.00      0.00      0.00     0.000      0.00    0.0    0.0
  P-913C                   0.00           0      0.00      0.00      0.00     0.000      0.00    0.0    0.0
  P-913D                   0.00           0      0.00      0.00      0.00     0.000      0.00    0.0    0.0
  

  Analysis begun on:  Wed Jun 24 08:09:37 2026
  Analysis ended on:  Wed Jun 24 08:10:02 2026
  Total elapsed time: 00:00:25