
  EPA STORM WATER MANAGEMENT MODEL - VERSION 5.2 (Build 5.2.4)
  ------------------------------------------------------------

  Scenario Run :  BASE 
  
  ****************
  Analysis Options
  ****************
  Flow Units ............... CFS
  Process Models:
    Rainfall/Runoff ........ NO
    RDII ................... NO
    Snowmelt ............... NO
    Groundwater ............ NO
    Flow Routing ........... YES
    Ponding Allowed ........ YES
    Water Quality .......... NO
  Flow Routing Method ...... DYNWAVE
  Surcharge Method ......... EXTRAN
  Starting Date ............ 01/01/1900 00:00:00
  Ending Date .............. 01/03/1900 00:00:00
  Antecedent Dry Days ...... 0.0
  Report Time Step ......... 00:05:00
  Routing Time Step ........ 30.00 sec
  Variable Time Step ....... YES
  Maximum Trials ........... 4
  Number of Threads ........ 1
  Head Tolerance ........... 0.005000 ft
  
  
  **************************        Volume        Volume
  Flow Routing Continuity        acre-feet      10^6 gal
  **************************     ---------     ---------
  Dry Weather Inflow .......         0.000         0.000
  Wet Weather Inflow .......         0.000         0.000
  Groundwater Inflow .......         0.000         0.000
  RDII Inflow ..............         0.000         0.000
  External Inflow ..........         8.367         2.727
  External Outflow .........         8.378         2.730
  Flooding Loss ............         0.000         0.000
  Evaporation Loss .........         0.000         0.000
  Exfiltration Loss ........         0.000         0.000
  Initial Stored Volume ....         0.000         0.000
  Final Stored Volume ......         0.000         0.000
  Continuity Error (%) .....        -0.130
  
  
  ***************************
  Time-Step Critical Elements
  ***************************
  Link 0-3A-0-3/24/ACP (85.18%)
  Link P-89 (1.60%)
  
  
  ********************************
  Highest Flow Instability Indexes
  ********************************
  All links are stable.
  
  
  *********************************
  Most Frequent Nonconverging Nodes
  *********************************
  Node O-WWTP (0.07%)
  Node B-22 (0.04%)
  Node MESA_CORTINA (0.03%)
  Node BMFC (0.03%)
  Node B-21 (0.03%)
  
  
  *************************
  Routing Time Step Summary
  *************************
  Minimum Time Step           :     2.08 sec
  Average Time Step           :     8.98 sec
  Maximum Time Step           :    30.00 sec
  % of Time in Steady State   :     0.00
  Average Iterations per Step :     2.00
  % of Steps Not Converging   :     0.07
  Time Step Frequencies       :
     30.000 -  3.817 sec      :    99.97 %
      3.817 -  0.486 sec      :     0.03 %
      0.486 -  0.062 sec      :     0.00 %
      0.062 -  0.008 sec      :     0.00 %
      0.008 -  0.001 sec      :     0.00 %
  
  
  ******************
  Node Depth Summary
  ******************
  
  ---------------------------------------------------------------------------------
                                 Average  Maximum  Maximum  Time of Max    Reported
                                   Depth    Depth      HGL   Occurrence   Max Depth
  Node                 Type         Feet     Feet     Feet  days hr:min        Feet
  ---------------------------------------------------------------------------------
  0-1                  JUNCTION     0.65     0.87  8628.37     0  22:52        0.87
  0-10                 JUNCTION     0.42     0.56  8672.49     0  22:40        0.56
  0-10A                JUNCTION     0.44     0.59  8674.89     0  22:39        0.59
  0-11                 JUNCTION     0.44     0.58  8678.10     0  22:38        0.58
  0-12                 JUNCTION     0.50     0.66  8681.91     0  22:37        0.66
  0-13                 JUNCTION     0.63     0.84  8683.38     0  22:36        0.84
  0-14                 JUNCTION     0.63     0.84  8684.31     0  22:32        0.84
  0-15                 JUNCTION     0.59     0.79  8685.44     0  22:31        0.79
  0-16                 JUNCTION     0.66     0.88  8686.39     0  22:29        0.88
  0-17                 JUNCTION     0.57     0.76  8687.64     0  22:28        0.76
  0-18                 JUNCTION     0.60     0.80  8688.87     0  22:26        0.80
  0-18A                JUNCTION     0.59     0.78  8689.08     0  22:25        0.78
  0-18B                JUNCTION     0.54     0.72  8689.62     0  22:24        0.72
  0-19                 JUNCTION     0.66     0.88  8690.14     0  22:24        0.88
  0-1A                 JUNCTION     0.68     0.91  8627.91     0  22:54        0.91
  0-1B                 JUNCTION     0.48     0.64  8627.39     0  22:54        0.64
  0-1C                 JUNCTION     0.55     0.73  8626.73     0  22:55        0.73
  0-2                  JUNCTION     0.50     0.66  8628.82     0  22:52        0.66
  0-20                 JUNCTION     0.56     0.75  8691.43     0  22:22        0.75
  0-21                 JUNCTION     0.27     0.36  8692.30     0  13:28        0.36
  0-22                 JUNCTION     0.43     0.58  8693.79     0  13:26        0.58
  0-23                 JUNCTION     0.32     0.44  8698.18     0  13:25        0.44
  0-24                 JUNCTION     0.33     0.44  8702.93     0  13:23        0.44
  0-24A                JUNCTION     0.31     0.41  8704.41     0  13:23        0.41
  0-25                 JUNCTION     0.24     0.32  8708.89     0  13:23        0.32
  0-26                 JUNCTION     0.36     0.48  8712.22     0  13:22        0.48
  0-27                 JUNCTION     0.33     0.45  8715.61     0  13:21        0.45
  0-28                 JUNCTION     0.33     0.44  8718.45     0  13:20        0.44
  0-29                 JUNCTION     0.33     0.44  8719.25     0  13:19        0.44
  0-3                  JUNCTION     0.44     0.58  8635.38     0  22:51        0.58
  0-30                 JUNCTION     0.33     0.44  8721.29     0  13:19        0.44
  0-30A                JUNCTION     0.48     0.65  8722.09     0  13:18        0.65
  0-30B                JUNCTION     0.48     0.65  8721.95     0  13:18        0.65
  0-31                 JUNCTION     0.39     0.53  8722.38     0  13:17        0.53
  0-32                 JUNCTION     0.32     0.43  8724.81     0  13:16        0.43
  0-32A                JUNCTION     0.25     0.34  8727.36     0  13:15        0.34
  0-33                 JUNCTION     0.23     0.31  8733.70     0  13:15        0.31
  0-34                 JUNCTION     0.31     0.42  8737.72     0  13:14        0.42
  0-34A                JUNCTION     0.28     0.38  8740.78     0  13:13        0.38
  0-35                 JUNCTION     0.28     0.38  8741.48     0  13:13        0.38
  0-36                 JUNCTION     0.37     0.51  8743.16     0  13:12        0.51
  0-37                 JUNCTION     0.31     0.42  8745.49     0  13:11        0.42
  0-38                 JUNCTION     0.40     0.54  8746.44     0  13:10        0.54
  0-38R                JUNCTION     0.15     0.20  8757.39     0  13:09        0.20
  0-3A                 JUNCTION     0.66     0.88  8635.88     0  22:50        0.88
  0-3B                 JUNCTION     0.42     0.57  8798.27     0  13:06        0.57
  0-3C                 JUNCTION     0.23     0.31  8808.83     0  13:05        0.31
  0-4                  JUNCTION     0.59     0.78  8637.59     0  22:48        0.78
  0-5                  JUNCTION     0.20     0.27  8815.08     0  13:04        0.27
  0-5A                 JUNCTION     0.29     0.39  8822.11     0  13:03        0.39
  0-5BR                JUNCTION     0.24     0.32  8827.76     0  13:01        0.32
  0-5_DUP              JUNCTION     0.45     0.60  8643.12     0  22:47        0.60
  0-6                  JUNCTION     0.47     0.63  8647.60     0  22:43        0.63
  0-7                  JUNCTION     0.44     0.58  8653.21     0  22:43        0.58
  0-8                  JUNCTION     0.44     0.58  8658.97     0  22:42        0.58
  0-9                  JUNCTION     0.42     0.56  8665.63     0  22:41        0.56
  0-R1                 JUNCTION     0.24     0.32  8768.93     0  13:09        0.32
  0-R2                 JUNCTION     0.22     0.30  8779.76     0  13:08        0.30
  0-R3                 JUNCTION     0.21     0.29  8792.29     0  13:07        0.29
  0-R4                 JUNCTION     0.18     0.25  8797.20     0  13:07        0.25
  B-1                  JUNCTION     0.43     0.58  8697.51     0  22:19        0.58
  B-10                 JUNCTION     0.27     0.39  8730.88     0  00:10        0.39
  B-11                 JUNCTION     0.31     0.46  8734.16     0  00:09        0.44
  B-12                 JUNCTION     0.29     0.47  8736.17     0  00:07        0.40
  B-13                 JUNCTION     0.30     0.49  8738.99     0  00:06        0.41
  B-13A                JUNCTION     0.24     0.43  8741.79     0  00:06        0.33
  B-14                 JUNCTION     0.31     0.53  8742.93     0  00:05        0.43
  B-15                 JUNCTION     0.25     0.50  8746.21     0  00:04        0.50
  B-16R                JUNCTION     0.24     0.55  8747.56     0  00:04        0.40
  B-16RA               JUNCTION     0.25     0.49  8749.18     0  00:03        0.38
  B-16RB               JUNCTION     0.24     0.53  8752.75     0  00:03        0.35
  B-17R                JUNCTION     0.24     0.60  8755.35     0  00:02        0.33
  B-18                 JUNCTION     0.23     0.56  8757.98     0  00:02        0.32
  B-19                 JUNCTION     0.27     0.67  8760.37     0  00:01        0.38
  B-2                  JUNCTION     0.33     0.45  8701.30     0  22:16        0.45
  B-20                 JUNCTION     0.29     0.83  8763.03     0  00:01        0.40
  B-21                 JUNCTION     0.27     1.22  8764.97     0  00:00        0.37
  B-22                 JUNCTION     0.21     2.89  8769.83     0  00:00        0.29
  B-2A                 JUNCTION     0.32     0.44  8701.54     0  22:16        0.44
  B-3                  JUNCTION     0.32     0.43  8705.67     0  22:15        0.43
  B-4                  JUNCTION     0.34     0.46  8709.12     0  22:14        0.46
  B-5                  JUNCTION     0.31     0.41  8712.98     0  22:13        0.41
  B-6                  JUNCTION     0.31     0.42  8716.50     0  00:14        0.42
  B-7                  JUNCTION     0.31     0.43  8719.78     0  00:13        0.42
  B-8                  JUNCTION     0.30     0.41  8722.82     0  00:12        0.40
  B-9                  JUNCTION     0.27     0.37  8727.08     0  00:11        0.37
  BMFC                 JUNCTION     0.43     2.49  8769.65     0  00:00        0.60
  BUFFALO_MT           JUNCTION     0.39     1.91  8772.01     0  00:00        0.55
  DILLON               JUNCTION     0.10     0.21  8831.21     0  00:00        0.14
  DILLON_VALLEY        JUNCTION     0.16     0.26  8831.26     0  00:00        0.22
  DVFV                 JUNCTION     0.30     0.41  8830.41     0  13:00        0.41
  MESA_CORTINA         JUNCTION     0.13     0.84  8770.94     0  00:00        0.19
  T-5C                 JUNCTION     0.18     1.76  8771.76     0  00:00        0.25
  O-WWTP               OUTFALL      0.55     0.73  8626.63     0  22:55        0.73
  
  
  *******************
  Node Inflow Summary
  *******************
  
  -------------------------------------------------------------------------------------------------
                                  Maximum  Maximum                  Lateral       Total        Flow
                                  Lateral    Total  Time of Max      Inflow      Inflow     Balance
                                   Inflow   Inflow   Occurrence      Volume      Volume       Error
  Node                 Type           CFS      CFS  days hr:min    10^6 gal    10^6 gal     Percent
  -------------------------------------------------------------------------------------------------
  0-1                  JUNCTION      0.00     4.81     0  22:52           0        2.63       0.000
  0-10                 JUNCTION      0.00     4.49     0  22:39           0        2.45      -0.001
  0-10A                JUNCTION      0.11     4.49     0  22:39      0.0573        2.45      -0.001
  0-11                 JUNCTION      0.00     4.39     0  22:37           0         2.4       0.002
  0-12                 JUNCTION      0.00     4.39     0  22:36           0         2.4       0.001
  0-13                 JUNCTION      0.26     4.39     0  22:34       0.134         2.4      -0.005
  0-14                 JUNCTION      0.00     4.15     0  22:31           0        2.26       0.005
  0-15                 JUNCTION      0.00     4.15     0  22:30           0        2.26      -0.001
  0-16                 JUNCTION      0.00     4.15     0  22:28           0        2.26      -0.001
  0-17                 JUNCTION      0.00     4.15     0  22:26           0        2.26       0.000
  0-18                 JUNCTION      0.05     4.15     0  22:25       0.024        2.26      -0.003
  0-18A                JUNCTION      0.00     4.11     0  22:24           0        2.24       0.000
  0-18B                JUNCTION      0.00     4.11     0  22:24           0        2.24       0.000
  0-19                 JUNCTION      0.00     4.11     0  22:22           0        2.24       0.002
  0-1A                 JUNCTION      0.15     4.95     0  22:54      0.0801        2.71      -0.000
  0-1B                 JUNCTION      0.00     4.95     0  22:54           0        2.71      -0.000
  0-1C                 JUNCTION      0.04     4.99     0  22:55      0.0215        2.73       0.000
  0-2                  JUNCTION      0.03     4.81     0  22:51       0.014        2.63       0.000
  0-20                 JUNCTION      0.04     4.11     0  22:22      0.0215        2.24      -0.003
  0-21                 JUNCTION      0.13     1.97     0  13:28      0.0677        1.07      -0.001
  0-22                 JUNCTION      0.07     1.85     0  13:25      0.0358           1       0.001
  0-23                 JUNCTION      0.00     1.79     0  13:24           0       0.966       0.002
  0-24                 JUNCTION      0.00     1.79     0  13:23     0.00072       0.966      -0.002
  0-24A                JUNCTION      0.00     1.79     0  13:23           0       0.965      -0.001
  0-25                 JUNCTION      0.03     1.79     0  13:22      0.0139       0.965       0.000
  0-26                 JUNCTION      0.00     1.77     0  13:21     0.00223       0.951       0.002
  0-27                 JUNCTION      0.00     1.76     0  13:20     0.00255       0.949      -0.000
  0-28                 JUNCTION      0.00     1.76     0  13:20     0.00072       0.946      -0.001
  0-29                 JUNCTION      0.02     1.76     0  13:19     0.00792       0.945       0.000
  0-3                  JUNCTION      0.00     4.78     0  22:50           0        2.61      -0.000
  0-30                 JUNCTION      0.06     1.74     0  13:19      0.0297       0.938      -0.001
  0-30A                JUNCTION      0.04     1.69     0  13:17      0.0194       0.908      -0.001
  0-30B                JUNCTION      0.00     1.69     0  13:18           0       0.908       0.001
  0-31                 JUNCTION      0.00     1.66     0  13:16           0       0.889       0.003
  0-32                 JUNCTION      0.00     1.66     0  13:15           0       0.889      -0.002
  0-32A                JUNCTION      0.00     1.66     0  13:15           0       0.889       0.000
  0-33                 JUNCTION      0.00     1.66     0  13:14           0       0.889       0.001
  0-34                 JUNCTION      0.02     1.66     0  13:13      0.0122       0.889      -0.000
  0-34A                JUNCTION      0.00     1.64     0  13:13           0       0.876      -0.000
  0-35                 JUNCTION      0.00     1.64     0  13:12           0       0.876       0.000
  0-36                 JUNCTION      0.05     1.64     0  13:11      0.0272       0.876       0.000
  0-37                 JUNCTION      0.00     1.60     0  13:10           0       0.849       0.001
  0-38                 JUNCTION      0.00     1.60     0  13:09           0       0.849      -0.002
  0-38R                JUNCTION      0.01     1.60     0  13:09     0.00266       0.849       0.000
  0-3A                 JUNCTION      0.09     4.78     0  22:49      0.0483        2.61       0.000
  0-3B                 JUNCTION      0.00     1.47     0  13:05           0       0.773       0.008
  0-3C                 JUNCTION      0.00     1.47     0  13:04           0       0.773      -0.004
  0-4                  JUNCTION      0.00     4.69     0  22:47           0        2.57       0.002
  0-5                  JUNCTION      0.00     1.47     0  13:03           0       0.773       0.007
  0-5A                 JUNCTION      0.00     1.47     0  13:01           0       0.773      -0.008
  0-5BR                JUNCTION      0.00     3.61     0  00:00           0       0.773      -0.019
  0-5_DUP              JUNCTION      0.21     4.69     0  22:46       0.111        2.57      -0.005
  0-6                  JUNCTION      0.00     4.49     0  22:43           0        2.45       0.003
  0-7                  JUNCTION      0.00     4.49     0  22:42           0        2.45      -0.000
  0-8                  JUNCTION      0.00     4.49     0  22:41           0        2.45      -0.000
  0-9                  JUNCTION      0.00     4.49     0  22:40           0        2.45       0.000
  0-R1                 JUNCTION      0.01     1.59     0  13:08     0.00493       0.846       0.002
  0-R2                 JUNCTION      0.01     1.58     0  13:07      0.0027       0.841       0.001
  0-R3                 JUNCTION      0.00     1.58     0  13:07           0       0.839      -0.015
  0-R4                 JUNCTION      0.13     1.58     0  13:07      0.0658       0.839      -0.005
  B-1                  JUNCTION      0.03     2.15     0  22:17      0.0149        1.15       0.005
  B-10                 JUNCTION      0.02     2.03     0  00:09     0.00831       0.944       0.001
  B-11                 JUNCTION      0.00     2.24     0  00:08           0       0.935       0.000
  B-12                 JUNCTION      0.02     2.39     0  00:07     0.00792       0.935       0.001
  B-13                 JUNCTION      0.00     2.82     0  00:06           0       0.928      -0.002
  B-13A                JUNCTION      0.00     2.67     0  00:05           0       0.928      -0.003
  B-14                 JUNCTION      0.16     3.25     0  00:05      0.0838       0.928       0.001
  B-15                 JUNCTION      0.00     3.42     0  00:04           0       0.844       0.003
  B-16R                JUNCTION      0.00     3.29     0  00:04           0       0.844      -0.002
  B-16RA               JUNCTION      0.00     3.50     0  00:03           0       0.844       0.006
  B-16RB               JUNCTION      0.00     4.00     0  00:02           0       0.844      -0.000
  B-17R                JUNCTION      0.00     4.44     0  00:02           0       0.844      -0.001
  B-18                 JUNCTION      0.00     4.23     0  00:02           0       0.844      -0.002
  B-19                 JUNCTION      0.00     5.04     0  00:01           0       0.844       0.007
  B-2                  JUNCTION      0.00     2.13     0  22:16     0.00126        1.13      -0.004
  B-20                 JUNCTION      0.00     7.16     0  00:00           0       0.844      -0.001
  B-21                 JUNCTION      0.01    13.75     0  00:00      0.0072       0.844      -0.003
  B-22                 JUNCTION      0.00    10.97     0  00:00           0       0.837       0.054
  B-2A                 JUNCTION      0.01     2.12     0  22:15     0.00381        1.13       0.000
  B-3                  JUNCTION      0.01     2.12     0  22:14      0.0059        1.13       0.002
  B-4                  JUNCTION      0.04     2.11     0  22:13      0.0212        1.12      -0.001
  B-5                  JUNCTION      0.00     2.07     0  22:12           0         1.1       0.001
  B-6                  JUNCTION      0.00     2.08     0  00:13           0         1.1      -0.000
  B-7                  JUNCTION      0.02     2.10     0  00:12      0.0128         1.1      -0.000
  B-8                  JUNCTION      0.28     2.11     0  00:11       0.144        1.09      -0.007
  B-9                  JUNCTION      0.00     1.97     0  00:10     0.00108       0.945       0.005
  BMFC                 JUNCTION      0.00     8.29     0  00:00           0       0.836      -0.141
  BUFFALO_MT           JUNCTION      1.24     1.24     0  20:00        0.64        0.64       0.008
  DILLON               JUNCTION      0.46     0.46     0  12:00       0.231       0.231       0.009
  DILLON_VALLEY        JUNCTION      1.07     1.07     0  13:00       0.541       0.541      -0.105
  DVFV                 JUNCTION      0.00     6.34     0  00:00           0       0.773      -0.025
  MESA_CORTINA         JUNCTION      0.38     1.23     0  00:00       0.194       0.194       0.012
  T-5C                 JUNCTION      0.00     2.30     0  00:00           0       0.834      -0.224
  O-WWTP               OUTFALL       0.00     4.99     0  22:55           0        2.73       0.000
  
  
  **********************
  Node Surcharge Summary
  **********************
  
  Surcharging occurs when water rises above the top of the highest conduit.
  ---------------------------------------------------------------------
                                               Max. Height   Min. Depth
                                   Hours       Above Crown    Below Rim
  Node                 Type      Surcharged           Feet         Feet
  ---------------------------------------------------------------------
  B-22                 JUNCTION        0.01          1.636        6.594
  BMFC                 JUNCTION        0.01          1.243        8.347
  BUFFALO_MT           JUNCTION        0.01          0.906        5.994
  T-5C                 JUNCTION        0.01          0.763        6.237
  
  
  *********************
  Node Flooding Summary
  *********************
  
  No nodes were flooded.
  
  
  ***********************
  Outfall Loading Summary
  ***********************
  
  -----------------------------------------------------------
                         Flow       Avg       Max       Total
                         Freq      Flow      Flow      Volume
  Outfall Node           Pcnt       CFS       CFS    10^6 gal
  -----------------------------------------------------------
  O-WWTP                89.37      3.84      4.99       2.730
  -----------------------------------------------------------
  System                89.37      3.84      4.99       2.730
  
  
  ********************
  Link Flow Summary
  ********************
  
  -----------------------------------------------------------------------------
                                 Maximum  Time of Max   Maximum    Max/    Max/
                                  |Flow|   Occurrence   |Veloc|    Full    Full
  Link                 Type          CFS  days hr:min    ft/sec    Flow   Depth
  -----------------------------------------------------------------------------
  0-1-0-1A/24          CONDUIT      4.81     0  22:52      3.56    0.39    0.44
  0-10-0-9/24/ACP      CONDUIT      4.49     0  22:40      6.27    0.17    0.28
  0-10A-0-10/24/ACP    CONDUIT      4.49     0  22:39      6.94    0.18    0.29
  0-11-0-10A/24/ACP    CONDUIT      4.39     0  22:38      5.71    0.19    0.29
  0-12-0-11/24/ACP     CONDUIT      4.39     0  22:37      5.28    0.22    0.31
  0-13-0-12/24/ACP     CONDUIT      4.39     0  22:36      5.06    0.27    0.33
  0-14-0-13/24/ACP     CONDUIT      4.15     0  22:32      3.09    0.29    0.37
  0-15-0-14/24/ACP     CONDUIT      4.15     0  22:31      3.21    0.26    0.36
  0-16-0-15/24/ACP     CONDUIT      4.15     0  22:30      3.09    0.31    0.37
  0-17-0-16/24/ACP     CONDUIT      4.15     0  22:28      3.18    0.24    0.36
  0-18-0-17/24/ACP     CONDUIT      4.15     0  22:26      3.41    0.26    0.35
  0-18A-0-18/27/ACP    CONDUIT      4.11     0  22:25      3.29    0.26    0.35
  0-18B-0-18A/27/ACP   CONDUIT      4.11     0  22:24      3.54    0.22    0.33
  0-19-0-18B/27/ACP    CONDUIT      4.11     0  22:24      3.24    0.32    0.36
  0-1A-0-1B/24         CONDUIT      4.95     0  22:54      4.41    0.41    0.39
  0-1B-0-1C/24/        CONDUIT      4.95     0  22:54      5.71    0.22    0.32
  0-2-0-1/24/ACP       CONDUIT      4.81     0  22:52      4.35    0.23    0.38
  0-20-0-19/27/ACP     CONDUIT      4.11     0  22:22      3.16    0.24    0.36
  0-21-0-20/18/DIP     CONDUIT      1.97     0  13:28      6.86    0.13    0.37
  0-22-0-21/18/DIP     CONDUIT      1.85     0  13:27      3.94    0.27    0.31
  0-23-0-22/15/DIP     CONDUIT      1.79     0  13:25      3.90    0.26    0.40
  0-24-0-23/15/DIP     CONDUIT      1.79     0  13:24      4.69    0.26    0.35
  0-24A-0-24/15/DIP    CONDUIT      1.79     0  13:23      4.87    0.23    0.34
  0-25-0-24A/15/DIP    CONDUIT      1.79     0  13:23      6.00    0.14    0.29
  0-26-0-25/15/DIP     CONDUIT      1.77     0  13:22      5.20    0.27    0.32
  0-27-0-26/15/DIP     CONDUIT      1.76     0  13:21      4.22    0.28    0.37
  0-28-0-27/15/DIP     CONDUIT      1.76     0  13:20      4.50    0.27    0.36
  0-29-0-28/15/DIP     CONDUIT      1.76     0  13:20      4.54    0.27    0.35
  0-3-0-2/24/ACP       CONDUIT      4.78     0  22:51      5.77    0.18    0.31
  0-30-0-29/15/DIP     CONDUIT      1.74     0  13:19      4.51    0.26    0.35
  0-30A-0-30B/15/VCP   CONDUIT      1.69     0  13:18      2.62    0.54    0.52
  0-30B-0-30/15/VCP    CONDUIT      1.69     0  13:18      3.30    0.50    0.44
  0-31-0-30A/15/VCP    CONDUIT      1.66     0  13:17      2.90    0.38    0.47
  0-32-0-31/15/VCP     CONDUIT      1.66     0  13:16      3.79    0.26    0.39
  0-32A-0-32/15/VCP    CONDUIT      1.66     0  13:15      5.15    0.16    0.31
  0-33-0-32A/15/VCP    CONDUIT      1.66     0  13:15      6.54    0.14    0.26
  0-34-0-33/15/VCP     CONDUIT      1.66     0  13:14      5.50    0.22    0.29
  0-36-0-35/15/VCP     CONDUIT      1.64     0  13:12      4.23    0.31    0.35
  0-37-0-36/15/VCP     CONDUIT      1.60     0  13:11      3.86    0.24    0.37
  0-38-0-37/15/VCP     CONDUIT      1.60     0  13:10      3.65    0.36    0.39
  0-38R-0-38/15/VCP    CONDUIT      1.60     0  13:09      5.20    0.06    0.30
  0-3A-0-3/24/ACP      CONDUIT      4.78     0  22:50      4.62    0.36    0.36
  0-3B-0-R4/18/VCP     CONDUIT      1.47     0  13:06      3.72    0.25    0.27
  0-3C-0-3B/20/VCP     CONDUIT      1.47     0  13:05      6.53    0.21    0.44
  0-4-0-3A/24/ACP      CONDUIT      4.69     0  22:48      3.81    0.32    0.41
  0-5-0-3C/20/VCP      CONDUIT      1.47     0  13:04      5.78    0.06    0.17
  0-5-0-4/24/ACP       CONDUIT      4.69     0  22:47      9.93    0.20    0.35
  0-5A-0-5/20/VCP      CONDUIT      1.47     0  13:03      4.82    0.11    0.20
  0-5BR-0-5A/20/VCP    CONDUIT      1.47     0  13:01      8.59    0.08    0.21
  0-6-0-5/24/ACP       CONDUIT      4.49     0  22:44      5.49    0.21    0.31
  0-7-0-6/24/ACP       CONDUIT      4.49     0  22:43      5.58    0.19    0.30
  0-8-0-7/24/ACP       CONDUIT      4.49     0  22:42      5.90    0.18    0.29
  0-9-0-8/24/ACP       CONDUIT      4.49     0  22:41      6.07    0.17    0.29
  0-R1-0-38R/15/VCP    CONDUIT      1.59     0  13:09      8.53    0.12    0.21
  0-R2-0-R1/15/VCP     CONDUIT      1.58     0  13:08      6.57    0.13    0.25
  0-R3-0-R2/15/VCP     CONDUIT      1.58     0  13:07     11.94    0.12    0.24
  0-R4-0-R3/15/VCP     CONDUIT      1.58     0  13:07     10.45    0.09    0.22
  B-1-0-20/18/VCP      CONDUIT      2.15     0  22:19      3.51    0.31    0.38
  B-10-B-9/18/VCP      CONDUIT      1.97     0  00:10      5.97    0.14    0.25
  B-11-B-10/18/VCP     CONDUIT      2.01     0  00:09      5.32    0.19    0.28
  B-12-B-11/18/VCP     CONDUIT      2.24     0  00:08      5.47    0.20    0.30
  B-13-B-12/18/VCP     CONDUIT      2.38     0  00:07      5.57    0.21    0.31
  B-13A-B-13/18/VCP    CONDUIT      2.82     0  00:06      7.12    0.17    0.29
  B-14-B-1A3/18/VCP    CONDUIT      2.67     0  00:05      6.14    0.23    0.32
  B-15-B-14/18/VCP     CONDUIT      3.11     0  00:05      6.63    0.22    0.32
  B-16R-B-15/18/VCP    CONDUIT      3.42     0  00:04      7.27    0.22    0.32
  B-16RA-B-16R/18/PVC  CONDUIT      3.29     0  00:04      6.38    0.23    0.34
  B-16RB-B-16RA/18/PVC CONDUIT      3.50     0  00:03      7.39    0.24    0.32
  B-17R-B-16B/18/PVC   CONDUIT      4.00     0  00:02      8.01    0.27    0.34
  B-18-B-17R/18/VCP    CONDUIT      4.44     0  00:02      8.49    0.27    0.36
  B-19-B-18/15/VCP     CONDUIT      4.23     0  00:02      7.40    0.48    0.48
  B-2-B-1/18/VCP       CONDUIT      2.13     0  22:17      5.01    0.19    0.34
  B-20-B-19/15/VCP     CONDUIT      5.04     0  00:01      8.40    0.67    0.54
  B-21-B-20/15/VCP     CONDUIT      7.16     0  00:00      8.51    0.84    0.68
  B-22-B-21            CONDUIT     13.74     0  00:00     18.66    0.99    0.75
  B-2A-B-2/18/VCP      CONDUIT      2.12     0  22:16      4.86    0.19    0.30
  B-3-B-2A/18/VCP      CONDUIT      2.12     0  22:15      5.01    0.18    0.29
  B-4-B-3/18/VCP       CONDUIT      2.11     0  22:14      4.93    0.20    0.30
  B-5-B-4/18/VCP       CONDUIT      2.07     0  22:13      5.22    0.17    0.29
  B-6-B-5/18/VCP       CONDUIT      2.07     0  22:12      5.37    0.17    0.28
  B-7-B-6/18/VCP       CONDUIT      2.08     0  00:13      5.34    0.17    0.28
  B-8-B-7/18/VCP       CONDUIT      2.08     0  00:12      9.83    0.16    0.28
  B-9-8/18/VCP         CONDUIT      1.87     0  00:11      5.42    0.14    0.26
  BMFV-B-22            CONDUIT     10.97     0  00:00     17.88    2.50    1.00
  BUFFALLO_MT          CONDUIT      1.92     0  00:00      4.27    0.38    1.00
  DILLION_VALLEY       CONDUIT      6.34     0  00:00     12.58    0.91    0.87
  DILLON               CONDUIT      0.58     0  00:00      3.44    0.05    0.31
  DVFV-0-5BR/20/VCP    CONDUIT      3.61     0  00:00      7.58    0.46    0.37
  MESA_CORTINA         CONDUIT      0.94     0  00:00      3.49    0.19    0.73
  P-89                 CONDUIT      1.64     0  13:13      5.25    0.20    0.30
  P-90                 CONDUIT      1.64     0  13:13      4.83    0.20    0.32
  P-WWTP               CONDUIT      4.99     0  22:55      4.21    0.18    0.29
  T-5C-BMFV            CONDUIT      8.29     0  00:00     11.27    0.68    1.00
  
  
  ***************************
  Flow Classification Summary
  ***************************
  
  -------------------------------------------------------------------------------------
                      Adjusted    ---------- Fraction of Time in Flow Class ---------- 
                       /Actual         Up    Down  Sub   Sup   Up    Down  Norm  Inlet 
  Conduit               Length    Dry  Dry   Dry   Crit  Crit  Crit  Crit  Ltd   Ctrl  
  -------------------------------------------------------------------------------------
  0-1-0-1A/24             1.00   0.00  0.00  0.00  1.00  0.00  0.00  0.00  1.00  0.00
  0-10-0-9/24/ACP         1.00   0.00  0.00  0.00  0.40  0.60  0.00  0.00  0.99  0.00
  0-10A-0-10/24/ACP       1.00   0.00  0.00  0.00  0.40  0.60  0.00  0.00  0.39  0.00
  0-11-0-10A/24/ACP       1.00   0.00  0.00  0.00  0.41  0.59  0.00  0.00  0.92  0.00
  0-12-0-11/24/ACP        1.00   0.00  0.00  0.00  0.43  0.57  0.00  0.00  0.38  0.00
  0-13-0-12/24/ACP        1.00   0.00  0.00  0.00  1.00  0.00  0.00  0.00  0.39  0.00
  0-14-0-13/24/ACP        1.00   0.00  0.38  0.00  0.62  0.00  0.00  0.00  0.86  0.00
  0-15-0-14/24/ACP        1.00   0.38  0.01  0.00  0.61  0.00  0.00  0.00  0.99  0.00
  0-16-0-15/24/ACP        1.00   0.38  0.00  0.00  0.61  0.00  0.00  0.00  0.48  0.00
  0-17-0-16/24/ACP        1.00   0.39  0.01  0.00  0.61  0.00  0.00  0.00  0.99  0.00
  0-18-0-17/24/ACP        1.00   0.39  0.00  0.00  0.60  0.00  0.00  0.00  0.49  0.00
  0-18A-0-18/27/ACP       1.00   0.00  0.00  0.00  1.00  0.00  0.00  0.00  0.65  0.00
  0-18B-0-18A/27/ACP      1.00   0.00  0.00  0.00  1.00  0.00  0.00  0.00  0.99  0.00
  0-19-0-18B/27/ACP       1.00   0.00  0.00  0.00  1.00  0.00  0.00  0.00  0.40  0.00
  0-1A-0-1B/24            1.00   0.00  0.00  0.00  0.50  0.50  0.00  0.00  0.35  0.00
  0-1B-0-1C/24/           1.25   0.00  0.00  0.00  0.00  0.00  0.00  1.00  0.00  0.00
  0-2-0-1/24/ACP          1.00   0.00  0.35  0.00  0.14  0.51  0.00  0.00  1.00  0.00
  0-20-0-19/27/ACP        1.00   0.00  0.40  0.00  0.60  0.00  0.00  0.00  1.00  0.00
  0-21-0-20/18/DIP        1.37   0.00  0.00  0.00  0.99  0.01  0.00  0.00  1.00  0.00
  0-22-0-21/18/DIP        1.00   0.00  0.00  0.00  0.48  0.52  0.00  0.00  0.00  0.00
  0-23-0-22/15/DIP        1.00   0.00  0.41  0.00  0.09  0.50  0.00  0.00  1.00  0.00
  0-24-0-23/15/DIP        1.00   0.00  0.00  0.00  0.45  0.55  0.00  0.00  0.09  0.00
  0-24A-0-24/15/DIP       1.00   0.00  0.00  0.00  0.45  0.55  0.00  0.00  1.00  0.00
  0-25-0-24A/15/DIP       1.00   0.00  0.00  0.00  0.43  0.57  0.00  0.00  1.00  0.00
  0-26-0-25/15/DIP        1.00   0.00  0.00  0.00  0.44  0.56  0.00  0.00  0.42  0.00
  0-27-0-26/15/DIP        1.00   0.00  0.00  0.00  0.48  0.52  0.00  0.00  0.99  0.00
  0-28-0-27/15/DIP        1.00   0.00  0.00  0.00  0.47  0.53  0.00  0.00  0.58  0.00
  0-29-0-28/15/DIP        1.00   0.00  0.00  0.00  0.46  0.54  0.00  0.00  0.50  0.00
  0-3-0-2/24/ACP          1.00   0.00  0.00  0.00  0.39  0.61  0.00  0.00  1.00  0.00
  0-30-0-29/15/DIP        1.00   0.00  0.00  0.00  0.46  0.54  0.00  0.00  1.00  0.00
  0-30A-0-30B/15/VCP      1.00   0.00  0.00  0.00  1.00  0.00  0.00  0.00  0.49  0.00
  0-30B-0-30/15/VCP       1.00   0.00  0.00  0.00  1.00  0.00  0.00  0.00  0.43  0.00
  0-31-0-30A/15/VCP       1.00   0.00  0.00  0.00  1.00  0.00  0.00  0.00  1.00  0.00
  0-32-0-31/15/VCP        1.00   0.00  0.00  0.00  0.49  0.51  0.00  0.00  0.99  0.00
  0-32A-0-32/15/VCP       1.00   0.00  0.00  0.00  0.46  0.54  0.00  0.00  1.00  0.00
  0-33-0-32A/15/VCP       1.00   0.00  0.00  0.00  0.45  0.55  0.00  0.00  1.00  0.00
  0-34-0-33/15/VCP        1.00   0.00  0.00  0.00  0.46  0.54  0.00  0.00  0.00  0.00
  0-36-0-35/15/VCP        1.00   0.00  0.00  0.00  0.48  0.52  0.00  0.00  0.44  0.00
  0-37-0-36/15/VCP        1.00   0.00  0.00  0.00  0.50  0.50  0.00  0.00  1.00  0.00
  0-38-0-37/15/VCP        1.00   0.00  0.00  0.00  0.49  0.51  0.00  0.00  0.01  0.00
  0-38R-0-38/15/VCP       1.83   0.00  0.00  0.00  0.47  0.53  0.00  0.00  1.00  0.00
  0-3A-0-3/24/ACP         1.04   0.00  0.00  0.00  0.46  0.54  0.00  0.00  0.00  0.00
  0-3B-0-R4/18/VCP        1.00   0.00  0.00  0.00  0.49  0.51  0.00  0.00  0.00  0.00
  0-3C-0-3B/20/VCP        1.00   0.00  0.47  0.00  0.03  0.50  0.00  0.00  1.00  0.00
  0-4-0-3A/24/ACP         1.00   0.00  0.35  0.00  0.65  0.00  0.00  0.00  1.00  0.00
  0-5-0-3C/20/VCP         1.00   0.47  0.01  0.00  0.01  0.51  0.00  0.00  1.00  0.00
  0-5-0-4/24/ACP          1.00   0.35  0.01  0.00  0.10  0.54  0.00  0.00  1.00  0.00
  0-5A-0-5/20/VCP         1.00   0.00  0.00  0.00  0.49  0.51  0.00  0.00  0.49  0.00
  0-5BR-0-5A/20/VCP       1.00   0.00  0.49  0.00  0.01  0.50  0.00  0.00  1.00  0.00
  0-6-0-5/24/ACP          1.00   0.36  0.00  0.00  0.05  0.58  0.00  0.00  0.40  0.00
  0-7-0-6/24/ACP          1.00   0.36  0.00  0.00  0.05  0.59  0.00  0.00  0.99  0.00
  0-8-0-7/24/ACP          1.00   0.37  0.00  0.00  0.04  0.60  0.00  0.00  0.98  0.00
  0-9-0-8/24/ACP          1.00   0.37  0.00  0.00  0.03  0.60  0.00  0.00  0.99  0.00
  0-R1-0-38R/15/VCP       1.00   0.00  0.00  0.00  0.45  0.55  0.00  0.00  0.45  0.00
  0-R2-0-R1/15/VCP        1.00   0.00  0.00  0.00  0.46  0.54  0.00  0.00  1.00  0.00
  0-R3-0-R2/15/VCP        1.00   0.00  0.00  0.00  0.45  0.55  0.00  0.00  1.00  0.00
  0-R4-0-R3/15/VCP        1.18   0.00  0.00  0.00  0.46  0.54  0.00  0.00  1.00  0.00
  B-1-0-20/18/VCP         1.00   0.00  0.00  0.00  0.00  0.00  0.00  1.00  0.00  0.00
  B-10-B-9/18/VCP         1.00   0.00  0.00  0.00  0.48  0.52  0.00  0.00  1.00  0.00
  B-11-B-10/18/VCP        1.00   0.00  0.00  0.00  0.48  0.52  0.00  0.00  0.50  0.00
  B-12-B-11/18/VCP        1.00   0.00  0.00  0.00  0.49  0.51  0.00  0.00  1.00  0.00
  B-13-B-12/18/VCP        1.00   0.00  0.00  0.00  0.49  0.51  0.00  0.00  0.50  0.00
  B-13A-B-13/18/VCP       1.00   0.00  0.00  0.00  0.49  0.51  0.00  0.00  1.00  0.00
  B-14-B-1A3/18/VCP       1.00   0.00  0.00  0.00  0.49  0.51  0.00  0.00  0.48  0.00
  B-15-B-14/18/VCP        1.00   0.00  0.00  0.00  0.49  0.51  0.00  0.00  1.00  0.00
  B-16R-B-15/18/VCP       1.00   0.00  0.00  0.00  0.49  0.51  0.00  0.00  1.00  0.00
  B-16RA-B-16R/18/PVC     1.00   0.00  0.00  0.00  0.49  0.51  0.00  0.00  0.50  0.00
  B-16RB-B-16RA/18/PVC    1.00   0.00  0.00  0.00  0.49  0.51  0.00  0.00  1.00  0.00
  B-17R-B-16B/18/PVC      1.00   0.00  0.00  0.00  0.49  0.51  0.00  0.00  1.00  0.00
  B-18-B-17R/18/VCP       1.00   0.00  0.00  0.00  0.49  0.51  0.00  0.00  1.00  0.00
  B-19-B-18/15/VCP        1.00   0.00  0.00  0.00  0.49  0.51  0.00  0.00  0.01  0.00
  B-2-B-1/18/VCP          1.00   0.00  0.44  0.00  0.06  0.50  0.00  0.00  1.00  0.00
  B-20-B-19/15/VCP        1.00   0.00  0.00  0.00  0.50  0.50  0.00  0.00  0.50  0.00
  B-21-B-20/15/VCP        1.00   0.00  0.00  0.00  0.50  0.50  0.00  0.00  0.51  0.00
  B-22-B-21               1.00   0.00  0.00  0.00  0.50  0.50  0.00  0.00  1.00  0.00
  B-2A-B-2/18/VCP         2.26   0.44  0.01  0.00  0.02  0.53  0.00  0.00  0.99  0.00
  B-3-B-2A/18/VCP         1.00   0.00  0.00  0.00  0.47  0.53  0.00  0.00  1.00  0.00
  B-4-B-3/18/VCP          1.00   0.00  0.00  0.00  0.47  0.53  0.00  0.00  0.49  0.00
  B-5-B-4/18/VCP          1.00   0.00  0.46  0.00  0.02  0.52  0.00  0.00  1.00  0.00
  B-6-B-5/18/VCP          1.00   0.00  0.00  0.00  0.47  0.53  0.00  0.00  0.50  0.00
  B-7-B-6/18/VCP          1.00   0.00  0.00  0.00  0.48  0.52  0.00  0.00  1.00  0.00
  B-8-B-7/18/VCP          1.00   0.00  0.00  0.00  0.48  0.52  0.00  0.00  1.00  0.00
  B-9-8/18/VCP            1.00   0.00  0.00  0.00  0.48  0.52  0.00  0.00  1.00  0.00
  BMFV-B-22               1.00   0.00  0.00  0.00  0.50  0.50  0.00  0.00  0.49  0.00
  BUFFALLO_MT            12.09   0.00  0.00  0.00  0.50  0.50  0.00  0.00  0.50  0.00
  DILLION_VALLEY          8.96   0.00  0.49  0.00  0.01  0.50  0.00  0.00  1.00  0.00
  DILLON                 10.03   0.00  0.50  0.00  0.28  0.23  0.00  0.00  1.00  0.00
  DVFV-0-5BR/20/VCP       1.00   0.00  0.00  0.00  0.50  0.50  0.00  0.00  0.50  0.00
  MESA_CORTINA           12.09   0.00  0.00  0.00  0.50  0.50  0.00  0.00  1.00  0.00
  P-89                    1.10   0.00  0.00  0.00  0.46  0.54  0.00  0.00  0.99  0.00
  P-90                    1.00   0.00  0.00  0.00  0.47  0.53  0.00  0.00  1.00  0.00
  P-WWTP                  1.88   0.00  0.00  0.00  0.42  0.58  0.00  0.00  0.29  0.00
  T-5C-BMFV               2.58   0.00  0.49  0.00  0.01  0.50  0.00  0.00  1.00  0.00
  
  
  *************************
  Conduit Surcharge Summary
  *************************
  
  ----------------------------------------------------------------------------
                                                           Hours        Hours 
                         --------- Hours Full --------   Above Full   Capacity
  Conduit                Both Ends  Upstream  Dnstream   Normal Flow   Limited
  ----------------------------------------------------------------------------
  B-22-B-21                   0.01      0.01      0.01      0.01         0.01
  BMFV-B-22                   0.01      0.01      0.01      0.01         0.01
  BUFFALLO_MT                 0.01      0.01      0.01      0.01         0.01
  DILLON                      0.01      0.01      0.01      0.01         0.01
  MESA_CORTINA                0.01      0.01      0.01      0.01         0.01
  T-5C-BMFV                   0.01      0.01      0.01      0.01         0.01
  

  Analysis begun on:  Wed Jun 24 08:10:03 2026
  Analysis ended on:  Wed Jun 24 08:10:03 2026
  Total elapsed time: < 1 sec