
  EPA STORM WATER MANAGEMENT MODEL - VERSION 5.2 (Build 5.2.4)
  ------------------------------------------------------------

  WARNING 02: maximum depth increased for Node Z4.10-MH-04
  WARNING 02: maximum depth increased for Node Z4.5-MH-07
  WARNING 02: maximum depth increased for Node Z4.6-MH-05
  
  ****************
  Analysis Options
  ****************
  Flow Units ............... LPS
  Process Models:
    Rainfall/Runoff ........ YES
    RDII ................... NO
    Snowmelt ............... NO
    Groundwater ............ NO
    Flow Routing ........... YES
    Ponding Allowed ........ YES
    Water Quality .......... YES
  Infiltration Method ...... HORTON
  Flow Routing Method ...... DYNWAVE
  Surcharge Method ......... EXTRAN
  Starting Date ............ 01/03/2025 00:00:00
  Ending Date .............. 01/04/2025 00:00:00
  Antecedent Dry Days ...... 5.0
  Report Time Step ......... 00:05:00
  Wet Time Step ............ 00:01:00
  Dry Time Step ............ 00:01:00
  Routing Time Step ........ 10.00 sec
  Variable Time Step ....... YES
  Maximum Trials ........... 8
  Number of Threads ........ 1
  Head Tolerance ........... 0.000100 m
  
  
  **************************        Volume         Depth
  Runoff Quantity Continuity     hectare-m            mm
  **************************     ---------       -------
  Total Precipitation ......        10.927        88.200
  Evaporation Loss .........         0.348         2.808
  Infiltration Loss ........         0.436         3.520
  Surface Runoff ...........        10.146        81.899
  Final Storage ............         0.000         0.000
  Continuity Error (%) .....        -0.032
  
  
  **************************           TSS
  Runoff Quality Continuity             kg
  **************************    ----------
  Initial Buildup ..........       554.046
  Surface Buildup ..........       226.619
  Wet Deposition ...........       546.349
  Sweeping Removal .........         0.000
  Infiltration Loss ........        21.806
  BMP Removal ..............       212.321
  Surface Runoff ...........       849.268
  Remaining Buildup ........       226.384
  Continuity Error (%) .....         1.299
  
  
  **************************        Volume        Volume
  Flow Routing Continuity        hectare-m      10^6 ltr
  **************************     ---------     ---------
  Dry Weather Inflow .......         0.000         0.000
  Wet Weather Inflow .......        10.141       101.410
  Groundwater Inflow .......         0.000         0.000
  RDII Inflow ..............         0.000         0.000
  External Inflow ..........         0.000         0.000
  External Outflow .........         9.867        98.676
  Flooding Loss ............         0.000         0.000
  Evaporation Loss .........         0.000         0.000
  Exfiltration Loss ........         0.000         0.000
  Initial Stored Volume ....         0.000         0.000
  Final Stored Volume ......         0.241         2.408
  Continuity Error (%) .....         0.321
  
  
  **************************           TSS
  Quality Routing Continuity            kg
  **************************    ----------
  Dry Weather Inflow .......         0.000
  Wet Weather Inflow .......       847.855
  Groundwater Inflow .......         0.000
  RDII Inflow ..............         0.000
  External Inflow ..........         0.000
  External Outflow .........       698.616
  Flooding Loss ............         0.000
  Exfiltration Loss ........         0.000
  Mass Reacted .............         4.014
  Initial Stored Mass ......         0.000
  Final Stored Mass ........        14.912
  Continuity Error (%) .....        15.370
  
  
  *************************
  Highest Continuity Errors
  *************************
  Node Z4.10-MH-03 (5.26%)
  Node Z3.10-MH-04 (4.16%)
  Node Z3.1-MH-11 (2.22%)
  Node Z3.10-MH-03 (1.92%)
  Node Z3.1-MH-15 (1.52%)
  
  
  ***************************
  Time-Step Critical Elements
  ***************************
  Link P2Z2.7-MH-01 (13.99%)
  Link P4Z4.18-MH-05 (3.59%)
  Link P4Z4.18-MH-02 (1.64%)
  
  
  ********************************
  Highest Flow Instability Indexes
  ********************************
  Link P3Z3.1-MH-06 (44)
  Link P3Z3.10-MH-02 (22)
  Link P3Z3.10-MH-03 (21)
  Link P3Z3.1-MH-13 (11)
  Link P4Z4.10-MH-02 (11)
  
  
  *********************************
  Most Frequent Nonconverging Nodes
  *********************************
  Node Z2.1-MH-24 (23.50%)
  Node ZONE1_OUTFALL (23.50%)
  Node ZONE3_OUTFALL (23.50%)
  Node ZONE4_OUTFALL (23.50%)
  Node ZONE5_OUTFALL (23.50%)
  
  
  *************************
  Routing Time Step Summary
  *************************
  Minimum Time Step           :     0.36 sec
  Average Time Step           :     8.42 sec
  Maximum Time Step           :    10.00 sec
  % of Time in Steady State   :     0.00
  Average Iterations per Step :     4.35
  % of Steps Not Converging   :    23.50
  Time Step Frequencies       :
     10.000 -  1.585 sec      :    97.00 %
      1.585 -  0.251 sec      :     3.00 %
      0.251 -  0.040 sec      :     0.00 %
      0.040 -  0.006 sec      :     0.00 %
      0.006 -  0.001 sec      :     0.00 %
  
  
  ***************************
  Subcatchment Runoff Summary
  ***************************
  
  ------------------------------------------------------------------------------------------------------------------------------
                            Total      Total      Total      Total     Imperv       Perv      Total       Total     Peak  Runoff
                           Precip      Runon       Evap      Infil     Runoff     Runoff     Runoff      Runoff   Runoff   Coeff
  Subcatchment                 mm         mm         mm         mm         mm         mm         mm    10^6 ltr      LPS
  ------------------------------------------------------------------------------------------------------------------------------
  WS1-SC100                 88.20       0.00       2.71       3.50      34.09      64.97      82.02        0.17   103.96   0.930
  WS1-SC101                 88.20       0.00       2.78       3.63      34.08      64.78      81.82        0.17    94.49   0.928
  WS1-SC102                 88.20       0.00       2.77       3.61      34.08      64.81      81.85        0.18   103.18   0.928
  WS1-SC103                 88.20       0.00       2.73       3.54      34.09      64.92      81.96        0.17   101.02   0.929
  WS1-SC104                 88.20       0.00       2.60       3.31      34.10      65.27      82.32        0.05    34.54   0.933
  WS1-SC105                 88.20       0.00       2.59       3.30      34.11      65.29      82.34        0.05    34.90   0.934
  WS1-SC106                 88.20       0.00       2.73       3.55      34.09      64.90      81.94        0.12    70.61   0.929
  WS1-SC107                 88.20       0.00       2.76       2.22      51.13      57.70      83.26        0.09    60.77   0.944
  WS1-SC108                 88.20       0.00       2.76       2.23      51.13      57.68      83.25        0.10    65.60   0.944
  WS1-SC109                 88.20       0.00       2.83       2.32      51.11      57.54      83.09        0.14    89.77   0.942
  WS1-SC110                 88.20       0.00       2.82       2.30      51.11      57.56      83.11        0.15    97.60   0.942
  WS1-SC111                 88.20       0.00       2.79       2.27      51.12      57.61      83.17        0.11    74.17   0.943
  WS1-SC112                 88.20       0.00       2.78       2.26      51.12      57.63      83.19        0.13    83.35   0.943
  WS1-SC113                 88.20       0.00       2.77       2.25      51.12      57.65      83.22        0.11    73.51   0.943
  WS1-SC114                 88.20       0.00       2.74       2.19      51.14      57.74      83.31        0.09    57.67   0.945
  WS1-SC115                 88.20       0.00       2.76       2.22      51.13      57.69      83.25        0.09    60.47   0.944
  WS1-SC116                 88.20       0.00       2.75       2.22      51.13      57.70      83.27        0.12    77.94   0.944
  WS1-SC117                 88.20       0.00       2.76       2.22      51.13      57.69      83.25        0.14    91.02   0.944
  WS1-SC118                 88.20       0.00       2.75       2.22      51.13      57.70      83.27        0.11    72.75   0.944
  WS1-SC119                 88.20       0.00       2.75       2.22      51.13      57.70      83.27        0.14    96.28   0.944
  WS1-SC120                 88.20       0.00       2.73       2.19      51.14      57.75      83.32        0.07    50.84   0.945
  WS1-SC121                 88.20       0.00       2.73       2.18      51.14      57.76      83.33        0.09    59.46   0.945
  WS1-SC122                 88.20       0.00       2.75       2.22      51.13      57.70      83.27        0.09    62.13   0.944
  WS1-SC123                 88.20       0.00       2.66       3.42      34.10      65.10      82.15        0.17   104.60   0.931
  WS1-SC124                 88.20       0.00       2.80       3.67      34.08      64.73      81.76        0.28   155.65   0.927
  WS1-SC125                 88.20       0.00       2.76       3.61      34.08      64.82      81.86        0.27   157.69   0.928
  WS1-SC126                 88.20       0.00       2.55       3.23      34.11      65.40      82.45        0.15   105.18   0.935
  WS1-SC127                 88.20       0.00       2.69       3.47      34.09      65.02      82.07        0.33   201.73   0.930
  WS1-SC128                 88.20       0.00       2.58       3.27      34.11      65.33      82.39        0.11    76.28   0.934
  WS1-SC129                 88.20       0.00       2.59       3.29      34.11      65.31      82.36        0.19   127.94   0.934
  WS1-SC130                 88.20       0.00       2.91       2.44      51.08      57.34      82.88        0.40   233.87   0.940
  WS1-SC131                 88.20       0.00       2.97       2.52      51.06      57.21      82.74        0.48   268.70   0.938
  WS1-SC132                 88.20       0.00       2.89       2.41      51.08      57.39      82.93        0.26   153.19   0.940
  WS1-SC133                 88.20       0.00       2.58       3.27      34.11      65.33      82.38        0.05    33.74   0.934
  WS1-SC134                 88.20       0.00       2.57       3.25      34.11      65.36      82.42        0.05    35.52   0.934
  WS1-SC135                 88.20       0.00       2.72       3.52      34.09      64.94      81.99        0.10    57.15   0.930
  WS1-SC136                 88.20       0.00       2.65       3.40      34.10      65.14      82.19        0.09    57.36   0.932
  WS1-SC137                 88.20       0.00       2.74       3.56      34.09      64.89      81.94        0.09    53.05   0.929
  WS1-SC138                 88.20       0.00       2.65       3.40      34.10      65.13      82.18        0.08    53.48   0.932
  WS1-SC139                 88.20       0.00       2.65       3.40      34.10      65.13      82.18        0.07    46.81   0.932
  WS1-SC140                 88.20       0.00       2.66       3.42      34.10      65.10      82.15        0.07    43.70   0.931
  WS1-SC141                 88.20       0.00       2.58       3.28      34.11      65.32      82.37        0.11    75.50   0.934
  WS1-SC142                 88.20       0.00       2.61       3.33      34.10      65.24      82.29        0.16   107.18   0.933
  WS1-SC143                 88.20       0.00       2.62       3.35      34.10      65.22      82.27        0.14    91.97   0.933
  WS1-SC144                 88.20       0.00       2.66       3.41      34.10      65.12      82.17        0.10    65.75   0.932
  WS1-SC145                 88.20       0.00       2.65       3.40      34.10      65.13      82.18        0.15    97.89   0.932
  WS1-SC146                 88.20       0.00       2.65       3.40      34.10      65.13      82.18        0.15    97.95   0.932
  WS1-SC147                 88.20       0.00       2.64       3.39      34.10      65.15      82.20        0.16   100.98   0.932
  WS1-SC148                 88.20       0.00       2.72       3.52      34.09      64.95      82.00        0.16    93.21   0.930
  WS1-SC149                 88.20       0.00       2.74       3.57      34.08      64.87      81.91        0.16    96.76   0.929
  WS1-SC150                 88.20       0.00       2.69       3.47      34.09      65.03      82.08        0.16   101.57   0.931
  WS1-SC151                 88.20       0.00       2.67       3.44      34.09      65.07      82.12        0.17   105.61   0.931
  WS1-SC152                 88.20       0.00       2.77       3.61      34.08      64.81      81.85        0.17    95.32   0.928
  WS1-SC153                 88.20       0.00       2.70       3.50      34.09      64.98      82.03        0.12    73.94   0.930
  WS1-SC154                 88.20       0.00       2.65       3.39      34.10      65.14      82.19        0.14    86.98   0.932
  WS1-SC155                 88.20       0.00       2.65       3.40      34.10      65.14      82.19        0.13    84.87   0.932
  WS1-SC156                 88.20       0.00       2.69       3.47      34.09      65.02      82.07        0.12    74.41   0.931
  WS1-SC157                 88.20       0.00       2.67       3.43      34.09      65.08      82.13        0.10    61.94   0.931
  WS1-SC158                 88.20       0.00       2.64       3.38      34.10      65.16      82.21        0.12    75.81   0.932
  WS1-SC159                 88.20       0.00       2.63       3.36      34.10      65.19      82.24        0.11    73.28   0.932
  WS1-SC160                 88.20       0.00       2.67       3.44      34.09      65.08      82.13        0.09    58.19   0.931
  WS1-SC161                 88.20       0.00       2.68       3.46      34.09      65.04      82.09        0.14    89.57   0.931
  WS1-SC163                 88.20       0.00       4.15       7.87      17.04      59.15      76.19        0.34   105.36   0.864
  WS1-SC164                 88.20       0.00       3.74       7.05      17.05      60.38      77.42        0.33   130.44   0.878
  WS1-SC165                 88.20       0.00       3.46       6.47      17.05      61.23      78.28        0.11    53.74   0.888
  WS1-SC166                 88.20       0.00       3.45       6.45      17.05      61.26      78.32        0.12    57.59   0.888
  WS1-SC167                 88.20       0.00       3.53       6.62      17.05      61.01      78.07        0.14    67.14   0.885
  WS1-SC168                 88.20       0.00       3.60       6.75      17.05      60.82      77.87        0.18    79.32   0.883
  WS1-SC169                 88.20       0.00       2.11       2.62      47.72      35.77      83.50        0.30   188.94   0.947
  WS1-SC170                 88.20       0.00       1.96       2.04      54.24      29.98      84.22        0.15   105.27   0.955
  WS1-SC171                 88.20       0.00       2.70       2.64      44.76      60.52      82.90        0.14    96.05   0.940
  WS1-SC172                 88.20       0.00       2.70       3.04      39.81      62.59      82.49        0.17   110.21   0.935
  WS1-SC173                 88.20       0.00       2.70       4.24      25.05      68.77      81.29        0.23   132.99   0.922
  WS1-SC174                 88.20       0.00       2.82       1.78      57.81      54.74      83.65        0.10    68.54   0.948
  WS1-SC175                 88.20       0.00       2.77       2.09      53.07      56.84      83.37        0.16   108.54   0.945
  WS1-SC21                  88.20       0.00       4.06       7.68      17.04      59.44      76.48        1.05   343.82   0.867
  WS1-SC23                  88.20       0.00       3.48       5.78      25.74      53.22      78.96        0.35   172.97   0.895
  WS1-SC31                  88.20       0.00       2.78       2.26      51.12      57.63      83.19        0.12    78.86   0.943
  WS1-SC311                 88.20       0.00       2.68       2.11      51.16      57.87      83.46        0.11    74.92   0.946
  WS1-SC312                 88.20       0.00       2.69       2.12      51.16      57.86      83.44        0.10    67.46   0.946
  WS1-SC313                 88.20       0.00       2.71       2.15      51.15      57.81      83.38        0.13    89.32   0.945
  WS1-SC314                 88.20       0.00       2.73       2.18      51.14      57.76      83.33        0.18   122.46   0.945
  WS1-SC315                 88.20       0.00       2.71       2.16      51.15      57.80      83.38        0.16   113.84   0.945
  WS1-SC32                  88.20       0.00       2.17       3.24      38.80      44.01      82.82        0.36   222.35   0.939
  WS1-SC34                  88.20       0.00       2.88       3.81      34.07      64.50      81.53        0.23   118.92   0.924
  WS1-SC35                  88.20       0.00       2.66       4.43      21.78      70.24      81.14        0.24   140.21   0.920
  WS1-SC351                 88.20       0.00       1.91       1.09      69.13      16.10      85.23        0.22   155.92   0.966
  WS1-SC352                 88.20       0.00       1.85       1.05      69.18      16.15      85.33        0.13    92.15   0.967
  WS1-SC36                  88.20       0.00       2.75       3.58      34.08      64.86      81.90        0.13    78.34   0.929
  WS1-SC37                  88.20       0.00       3.64       6.83      17.05      60.71      77.76        0.12    53.48   0.882
  WS1-SC382                 88.20       0.00       1.95       1.11      69.10      16.06      85.16        0.15   105.16   0.966
  WS1-SC383                 88.20       0.00       1.83       1.04      69.20      16.17      85.37        0.06    42.27   0.968
  WS1-SC384                 88.20       0.00       1.96       1.12      69.10      16.05      85.15        0.10    68.98   0.965
  WS1-SC385                 88.20       0.00       1.88       1.07      69.15      16.12      85.27        0.07    52.76   0.967
  WS1-SC386                 88.20       0.00       1.86       1.06      69.17      16.14      85.31        0.07    53.00   0.967
  WS1-SC387                 88.20       0.00       1.98       1.13      69.08      16.03      85.12        0.13    88.58   0.965
  WS1-SC388                 88.20       0.00       1.94       1.10      69.11      16.07      85.19        0.10    68.65   0.966
  WS1-SC389                 88.20       0.00       1.95       1.11      69.11      16.07      85.18        0.12    85.04   0.966
  WS1-SC390                 88.20       0.00       1.91       1.08      69.14      16.10      85.24        0.09    64.55   0.966
  WS1-SC391                 88.20       0.00       1.89       1.08      69.15      16.11      85.26        0.08    58.61   0.967
  WS1-SC392                 88.20       0.00       1.92       1.09      69.13      16.09      85.21        0.10    69.73   0.966
  WS1-SC393                 88.20       0.00       1.88       1.07      69.16      16.12      85.28        0.07    50.39   0.967
  WS1-SC394                 88.20       0.00       1.98       1.13      69.08      16.03      85.11        0.12    79.55   0.965
  WS1-SC395                 88.20       0.00       1.92       1.09      69.12      16.08      85.21        0.09    64.43   0.966
  WS1-SC396                 88.20       0.00       1.90       1.08      69.14      16.10      85.24        0.07    46.87   0.966
  WS1-SC397                 88.20       0.00       1.92       1.09      69.12      16.08      85.21        0.09    66.32   0.966
  WS1-SC398                 88.20       0.00       1.91       1.08      69.14      16.10      85.24        0.09    60.66   0.966
  WS1-SC399                 88.20       0.00       1.93       1.10      69.12      16.08      85.20        0.11    75.84   0.966
  WS1-SC400                 88.20       0.00       1.91       1.08      69.14      16.10      85.24        0.07    47.83   0.966
  WS1-SC401                 88.20       0.00       1.90       1.08      69.14      16.11      85.25        0.07    52.03   0.967
  WS1-SC402                 88.20       0.00       1.96       1.12      69.10      16.05      85.15        0.12    83.93   0.965
  WS1-SC403                 88.20       0.00       1.94       1.10      69.11      16.07      85.18        0.14    96.52   0.966
  WS1-SC404                 88.20       0.00       1.95       1.11      69.10      16.06      85.16        0.17   115.93   0.966
  WS1-SC405                 88.20       0.00       1.93       1.10      69.12      16.08      85.20        0.11    74.59   0.966
  WS1-SC41                  88.20       0.00       2.74       2.19      51.14      57.74      83.31        0.11    74.81   0.945
  WS1-SC416                 88.20       0.00       1.89       1.07      69.15      16.11      85.26        0.07    48.40   0.967
  WS1-SC417                 88.20       0.00       1.92       1.09      69.13      16.09      85.22        0.07    49.93   0.966
  WS1-SC418                 88.20       0.00       1.87       1.06      69.17      16.14      85.30        0.06    42.29   0.967
  WS1-SC419                 88.20       0.00       1.91       1.09      69.13      16.09      85.23        0.10    73.35   0.966
  WS1-SC42                  88.20       0.00       2.71       3.51      34.09      64.96      82.00        0.12    72.22   0.930
  WS1-SC420                 88.20       0.00       1.90       1.08      69.14      16.11      85.25        0.08    57.93   0.967
  WS1-SC421                 88.20       0.00       1.87       1.06      69.16      16.13      85.30        0.06    43.95   0.967
  WS1-SC422                 88.20       0.00       1.89       1.07      69.15      16.11      85.26        0.08    56.00   0.967
  WS1-SC423                 88.20       0.00       1.85       1.05      69.18      16.15      85.33        0.07    47.33   0.968
  WS1-SC425                 88.20       0.00       1.83       1.04      69.20      16.17      85.37        0.04    27.44   0.968
  WS1-SC426                 88.20       0.00       1.88       1.07      69.16      16.13      85.29        0.07    49.84   0.967
  WS1-SC427                 88.20       0.00       1.87       1.06      69.16      16.13      85.29        0.07    51.04   0.967
  WS1-SC428                 88.20       0.00       1.87       1.06      69.17      16.14      85.31        0.06    46.19   0.967
  WS1-SC429                 88.20       0.00       1.81       1.03      69.21      16.19      85.39        0.03    25.29   0.968
  WS1-SC430                 88.20       0.00       1.84       1.04      69.19      16.16      85.35        0.06    41.83   0.968
  WS1-SC431                 88.20       0.00       1.84       1.04      69.19      16.16      85.35        0.04    30.27   0.968
  WS1-SC441                 88.20       0.00       1.79       1.01      69.23      16.20      85.43        0.02    14.12   0.969
  WS1-SC460                 88.20       0.00       1.91       1.09      69.13      16.10      85.23        0.14    97.89   0.966
  WS1-SC461                 88.20       0.00       1.89       1.07      69.15      16.12      85.27        0.12    83.03   0.967
  WS1-SC462                 88.20       0.00       1.87       1.06      69.17      16.14      85.30        0.10    72.26   0.967
  WS1-SC463                 88.20       0.00       1.89       1.08      69.15      16.11      85.26        0.09    65.31   0.967
  WS1-SC464                 88.20       0.00       1.88       1.07      69.16      16.12      85.28        0.11    81.16   0.967
  WS1-SC465                 88.20       0.00       1.87       1.06      69.17      16.14      85.30        0.07    47.95   0.967
  WS1-SC466                 88.20       0.00       1.85       1.05      69.18      16.15      85.34        0.09    63.91   0.968
  WS1-SC467                 88.20       0.00       1.87       1.06      69.16      16.13      85.29        0.11    79.63   0.967
  WS1-SC468                 88.20       0.00       1.94       1.11      69.11      16.07      85.18        0.19   129.62   0.966
  WS1-SC469                 88.20       0.00       1.88       1.07      69.15      16.12      85.28        0.12    84.74   0.967
  WS1-SC50                  88.20       0.00       2.72       3.53      34.09      64.94      81.98        0.12    72.72   0.929
  WS1-SC501                 88.20       0.00       1.78       1.01      69.23      16.22      85.45        0.01    10.57   0.969
  WS1-SC506                 88.20       0.00       1.79       1.01      69.23      16.21      85.43        0.02    15.99   0.969
  WS1-SC507                 88.20       0.00       1.78       1.01      69.24      16.22      85.45        0.02    12.40   0.969
  WS1-SC508                 88.20       0.00       1.81       1.03      69.21      16.18      85.39        0.04    26.39   0.968
  WS1-SC514                 88.20       0.00       1.85       1.05      69.18      16.15      85.33        0.08    54.64   0.968
  WS1-SC515                 88.20       0.00       1.84       1.05      69.18      16.16      85.34        0.05    39.68   0.968
  WS1-SC516                 88.20       0.00       1.80       1.02      69.22      16.20      85.42        0.02    12.71   0.968
  WS1-SC517                 88.20       0.00       1.82       1.03      69.20      16.18      85.38        0.04    26.67   0.968
  WS1-SC518                 88.20       0.00       1.84       1.04      69.19      16.16      85.35        0.05    37.26   0.968
  WS1-SC54                  88.20       0.00       2.66       3.42      34.10      65.10      82.15        0.12    78.14   0.931
  WS1-SC545                 88.20       0.00       3.85       7.57      13.46      63.34      76.80        0.41   150.70   0.871
  WS1-SC546                 88.20       0.00       3.88       7.32      17.04      59.97      77.01        0.15    54.28   0.873
  WS1-SC547                 88.20       0.00       3.40       6.35      17.06      61.42      78.47        0.06    32.38   0.890
  WS1-SC548                 88.20       0.00       3.66       6.87      17.05      60.65      77.70        0.10    42.11   0.881
  WS1-SC549                 88.20       0.00       1.82       1.03      69.20      16.18      85.39        0.06    40.47   0.968
  WS1-SC557                 88.20       0.00       1.89       1.07      69.15      16.12      85.27        0.08    54.26   0.967
  WS1-SC558                 88.20       0.00       1.91       1.09      69.13      16.09      85.23        0.07    47.39   0.966
  WS1-SC559                 88.20       0.00       1.79       1.01      69.23      16.21      85.44        0.02    11.21   0.969
  WS1-SC56                  88.20       0.00       2.73       3.55      34.09      64.90      81.94        0.45   268.50   0.929
  WS1-SC572                 88.20       0.00       1.86       1.05      69.17      16.14      85.32        0.09    65.30   0.967
  WS1-SC573                 88.20       0.00       1.87       1.06      69.16      16.13      85.29        0.07    53.38   0.967
  WS1-SC574                 88.20       0.00       1.86       1.06      69.17      16.14      85.31        0.07    46.80   0.967
  WS1-SC575                 88.20       0.00       1.85       1.05      69.18      16.15      85.33        0.05    37.79   0.967
  WS1-SC576                 88.20       0.00       1.82       1.03      69.20      16.18      85.38        0.04    26.44   0.968
  WS1-SC577                 88.20       0.00       1.85       1.05      69.18      16.16      85.34        0.04    32.06   0.968
  WS1-SC578                 88.20       0.00       1.81       1.03      69.21      16.19      85.40        0.03    21.36   0.968
  WS1-SC579                 88.20       0.00       1.85       1.05      69.18      16.15      85.34        0.06    45.60   0.968
  WS1-SC580                 88.20       0.00       1.88       1.07      69.16      16.13      85.28        0.07    51.55   0.967
  WS1-SC581                 88.20       0.00       1.88       1.07      69.16      16.12      85.28        0.06    43.73   0.967
  WS1-SC583                 88.20       0.00       1.89       1.07      69.15      16.12      85.27        0.08    56.21   0.967
  WS1-SC59                  88.20       0.00       2.70       2.14      51.15      57.82      83.40        0.20   136.18   0.946
  WS1-SC595                 88.20       0.00       1.85       1.05      69.18      16.15      85.33        0.05    35.89   0.967
  WS1-SC596                 88.20       0.00       1.86       1.06      69.17      16.14      85.31        0.05    36.85   0.967
  WS1-SC597                 88.20       0.00       1.89       1.08      69.15      16.11      85.26        0.07    53.20   0.967
  WS1-SC598                 88.20       0.00       1.86       1.05      69.18      16.15      85.32        0.05    37.98   0.967
  WS1-SC599                 88.20       0.00       1.88       1.07      69.15      16.12      85.28        0.06    45.30   0.967
  WS1-SC600                 88.20       0.00       1.86       1.06      69.17      16.14      85.31        0.05    39.22   0.967
  WS1-SC601                 88.20       0.00       1.89       1.08      69.15      16.11      85.26        0.08    53.55   0.967
  WS1-SC602                 88.20       0.00       1.84       1.04      69.19      16.16      85.35        0.05    33.92   0.968
  WS1-SC72                  88.20       0.00       2.69       3.48      34.09      65.01      82.06        0.59   362.04   0.930
  WS1-SC73                  88.20       0.00       2.75       3.58      34.08      64.86      81.90        0.34   198.55   0.929
  WS1-SC75                  88.20       0.00       2.96       2.50      51.06      57.24      82.77        0.76   429.14   0.938
  WS1-SC80                  88.20       0.00       3.65       6.86      17.05      60.66      77.71        0.12    51.45   0.881
  WS1-SC84                  88.20       0.00       2.82       3.03      42.44      61.16      82.38        0.45   262.96   0.934
  WS1-SC85                  88.20       0.00       2.91       2.74      47.36      58.90      82.58        0.97   554.08   0.936
  WS1-SC89                  88.20       0.00       2.83       3.44      37.73      63.09      81.96        0.41   227.49   0.929
  WS1-SC91                  88.20       0.00       2.87       2.77      46.41      59.38      82.59        0.66   383.02   0.936
  WS1-SC93                  88.20       0.00       2.65       3.41      34.10      65.12      82.17        0.12    76.85   0.932
  WS1-SC94                  88.20       0.00       2.76       3.59      34.08      64.84      81.88        0.13    77.07   0.928
  WS1-SC95                  88.20       0.00       2.70       3.49      34.09      65.00      82.05        0.37   224.62   0.930
  WS1-SC96                  88.20       0.00       2.79       3.65      34.08      64.74      81.78        0.35   199.86   0.927
  WS1-SC97                  88.20       0.00       2.77       3.62      34.08      64.79      81.83        0.23   134.33   0.928
  WS1-SC98                  88.20       0.00       2.93       3.91      34.06      64.36      81.39        0.21   105.59   0.923
  WS1-SC99                  88.20       0.00       2.69       3.46      34.09      65.04      82.08        0.10    62.24   0.931
  WS2-SC10                  88.20       0.00       2.49       3.57      34.34      65.00      82.17        0.34   199.90   0.932
  WS2-SC11                  88.20       0.00       2.42       2.28      51.50      57.79      83.53        0.25   163.65   0.947
  WS2-SC12                  88.20       0.00       2.10       2.79      44.79      38.54      83.34        0.26   169.84   0.945
  WS2-SC14                  88.20       0.00       2.78       2.94      42.67      61.18      82.52        0.34   203.94   0.936
  WS2-SC16                  88.20       0.00       3.58       6.33      21.55      56.76      78.31        0.24   108.41   0.888
  WS2-SC162                 88.20       0.00       4.14       7.84      17.04      59.20      76.24        1.50   469.24   0.864
  WS2-SC2                   88.20       0.00       3.40       6.61      17.18      61.03      78.21        0.12    55.45   0.887
  WS2-SC217                 88.20       0.00       2.93       2.46      51.07      57.30      82.84        0.40   231.07   0.939
  WS2-SC218                 88.20       0.00       2.76       2.22      51.13      57.70      83.26        0.13    85.76   0.944
  WS2-SC219                 88.20       0.00       2.75       2.22      51.13      57.70      83.27        0.17   110.50   0.944
  WS2-SC22                  88.20       0.00       3.38       5.16      30.85      48.84      79.69        0.35   187.14   0.904
  WS2-SC220                 88.20       0.00       2.76       2.23      51.13      57.68      83.24        0.14    89.96   0.944
  WS2-SC221                 88.20       0.00       2.84       2.34      51.10      57.51      83.06        0.21   129.28   0.942
  WS2-SC222                 88.20       0.00       2.77       2.23      51.13      57.67      83.24        0.19   128.89   0.944
  WS2-SC223                 88.20       0.00       2.72       2.16      51.15      57.79      83.36        0.10    66.42   0.945
  WS2-SC224                 88.20       0.00       2.72       2.16      51.15      57.79      83.36        0.15   106.47   0.945
  WS2-SC225                 88.20       0.00       2.71       2.16      51.15      57.79      83.37        0.10    70.25   0.945
  WS2-SC226                 88.20       0.00       2.81       2.29      51.11      57.59      83.14        0.18   113.30   0.943
  WS2-SC227                 88.20       0.00       2.75       2.21      51.14      57.72      83.29        0.16   108.87   0.944
  WS2-SC228                 88.20       0.00       2.70       3.35      35.94      64.21      82.18        0.22   134.25   0.932
  WS2-SC229                 88.20       0.00       2.73       3.61      33.30      65.25      81.90        0.31   180.19   0.929
  WS2-SC230                 88.20       0.00       2.73       2.89      42.33      61.45      82.61        0.20   128.16   0.937
  WS2-SC231                 88.20       0.00       2.01       2.19      52.66      31.37      84.03        0.14    92.24   0.953
  WS2-SC232                 88.20       0.00       2.13       2.94      42.96      40.20      83.16        0.21   135.45   0.943
  WS2-SC233                 88.20       0.00       2.06       2.61      46.69      36.87      83.56        0.19   128.36   0.947
  WS2-SC240                 88.20       0.00       2.70       3.50      34.09      64.99      82.03        0.22   134.09   0.930
  WS2-SC241                 88.20       0.00       2.72       3.53      34.09      64.93      81.97        0.30   177.18   0.929
  WS2-SC242                 88.20       0.00       2.89       3.83      34.06      64.47      81.51        0.28   146.39   0.924
  WS2-SC243                 88.20       0.00       2.90       3.85      34.06      64.44      81.47        0.38   196.56   0.924
  WS2-SC244                 88.20       0.00       2.73       3.54      34.09      64.92      81.96        0.18   107.25   0.929
  WS2-SC245                 88.20       0.00       2.67       3.43      34.10      65.09      82.14        0.25   159.74   0.931
  WS2-SC246                 88.20       0.00       2.72       3.52      34.09      64.95      81.99        0.27   164.29   0.930
  WS2-SC247                 88.20       0.00       2.70       3.50      34.09      64.98      82.02        0.48   293.45   0.930
  WS2-SC248                 88.20       0.00       2.70       3.49      34.09      65.00      82.05        0.20   122.96   0.930
  WS2-SC249                 88.20       0.00       2.73       3.54      34.09      64.92      81.96        0.34   199.94   0.929
  WS2-SC250                 88.20       0.00       2.80       3.68      34.08      64.71      81.74        0.29   162.70   0.927
  WS2-SC26                  88.20       0.00       2.88       2.01      55.79      55.44      83.34        0.63   396.66   0.945
  WS2-SC406                 88.20       0.00       1.91       1.09      69.13      16.10      85.23        0.14    98.20   0.966
  WS2-SC407                 88.20       0.00       1.84       1.04      69.19      16.16      85.35        0.07    52.42   0.968
  WS2-SC408                 88.20       0.00       1.87       1.06      69.17      16.14      85.31        0.10    70.10   0.967
  WS2-SC409                 88.20       0.00       1.89       1.08      69.15      16.11      85.26        0.10    74.37   0.967
  WS2-SC410                 88.20       0.00       1.88       1.07      69.16      16.12      85.28        0.08    56.03   0.967
  WS2-SC411                 88.20       0.00       1.88       1.07      69.16      16.13      85.29        0.08    59.72   0.967
  WS2-SC412                 88.20       0.00       1.86       1.06      69.17      16.14      85.31        0.08    56.92   0.967
  WS2-SC413                 88.20       0.00       1.88       1.07      69.16      16.12      85.28        0.09    67.63   0.967
  WS2-SC415                 88.20       0.00       1.81       1.02      69.21      16.19      85.40        0.03    25.61   0.968
  WS2-SC440                 88.20       0.00       1.88       1.07      69.16      16.13      85.29        0.07    50.69   0.967
  WS2-SC442                 88.20       0.00       1.88       1.07      69.16      16.12      85.28        0.09    62.15   0.967
  WS2-SC443                 88.20       0.00       1.88       1.07      69.16      16.12      85.28        0.09    64.44   0.967
  WS2-SC444                 88.20       0.00       1.92       1.09      69.13      16.09      85.22        0.09    61.89   0.966
  WS2-SC445                 88.20       0.00       1.88       1.07      69.16      16.12      85.28        0.06    39.71   0.967
  WS2-SC446                 88.20       0.00       1.92       1.09      69.13      16.08      85.21        0.11    80.49   0.966
  WS2-SC447                 88.20       0.00       1.92       1.09      69.13      16.09      85.22        0.11    78.12   0.966
  WS2-SC448                 88.20       0.00       1.91       1.08      69.14      16.10      85.24        0.10    71.23   0.966
  WS2-SC449                 88.20       0.00       1.85       1.05      69.18      16.15      85.33        0.07    47.21   0.968
  WS2-SC450                 88.20       0.00       1.84       1.04      69.19      16.17      85.36        0.06    40.23   0.968
  WS2-SC484                 88.20       0.00       1.84       1.05      69.18      16.16      85.34        0.06    40.95   0.968
  WS2-SC485                 88.20       0.00       1.83       1.04      69.20      16.17      85.37        0.07    49.10   0.968
  WS2-SC486                 88.20       0.00       1.88       1.07      69.16      16.13      85.29        0.11    81.05   0.967
  WS2-SC492                 88.20       0.00       1.86       1.05      69.18      16.15      85.32        0.09    63.93   0.967
  WS2-SC493                 88.20       0.00       1.87       1.06      69.17      16.14      85.31        0.10    71.79   0.967
  WS2-SC494                 88.20       0.00       1.89       1.08      69.15      16.11      85.26        0.09    63.47   0.967
  WS2-SC495                 88.20       0.00       1.91       1.09      69.13      16.10      85.23        0.15   108.56   0.966
  WS2-SC496                 88.20       0.00       1.95       1.11      69.10      16.06      85.16        0.15   100.32   0.966
  WS2-SC497                 88.20       0.00       1.96       1.12      69.10      16.05      85.15        0.22   148.08   0.965
  WS2-SC498                 88.20       0.00       1.95       1.11      69.11      16.07      85.18        0.13    91.84   0.966
  WS2-SC499                 88.20       0.00       1.88       1.07      69.16      16.12      85.28        0.09    67.63   0.967
  WS2-SC5                   88.20       0.00       2.55       2.47      51.45      57.48      83.21        0.42   244.20   0.943
  WS2-SC500                 88.20       0.00       1.91       1.08      69.14      16.10      85.24        0.08    59.28   0.966
  WS2-SC502                 88.20       0.00       1.93       1.10      69.12      16.08      85.19        0.10    67.20   0.966
  WS2-SC529                 88.20       0.00       1.80       1.02      69.22      16.20      85.42        0.03    19.17   0.969
  WS2-SC531                 88.20       0.00       1.78       1.01      69.24      16.22      85.45        0.02    16.32   0.969
  WS2-SC532                 88.20       0.00       1.80       1.02      69.22      16.20      85.42        0.02    17.14   0.968
  WS2-SC533                 88.20       0.00       1.78       1.01      69.24      16.22      85.45        0.02    13.64   0.969
  WS2-SC536                 88.20       0.00       1.89       1.08      69.15      16.11      85.26        0.10    69.23   0.967
  WS2-SC537                 88.20       0.00       1.86       1.06      69.17      16.14      85.31        0.10    70.00   0.967
  WS2-SC538                 88.20       0.00       1.84       1.05      69.19      16.16      85.34        0.08    56.00   0.968
  WS2-SC539                 88.20       0.00       1.86       1.06      69.17      16.14      85.31        0.10    69.07   0.967
  WS2-SC540                 88.20       0.00       1.80       1.02      69.22      16.20      85.42        0.04    26.15   0.968
  WS2-SC541                 88.20       0.00       3.82       7.30      15.89      61.21      77.09        0.42   157.45   0.874
  WS2-SC542                 88.20       0.00       3.88       7.32      17.04      59.98      77.02        0.15    54.36   0.873
  WS2-SC543                 88.20       0.00       3.66       6.88      17.05      60.63      77.68        0.11    46.17   0.881
  WS2-SC544                 88.20       0.00       3.42       6.39      17.06      61.36      78.41        0.06    32.17   0.889
  WS2-SC553                 88.20       0.00       1.86       1.06      69.17      16.14      85.31        0.10    72.35   0.967
  WS2-SC554                 88.20       0.00       1.79       1.01      69.23      16.21      85.44        0.04    25.78   0.969
  WS2-SC560                 88.20       0.00       1.87       1.06      69.17      16.14      85.30        0.09    67.80   0.967
  WS2-SC591                 88.20       0.00       1.86       1.05      69.18      16.15      85.32        0.07    48.21   0.967
  WS2-SC592                 88.20       0.00       1.82       1.03      69.20      16.18      85.38        0.06    42.98   0.968
  WS2-SC593                 88.20       0.00       1.86       1.05      69.18      16.15      85.32        0.06    39.70   0.967
  WS2-SC594                 88.20       0.00       1.87       1.06      69.16      16.13      85.30        0.05    38.06   0.967
  WS2-SC6                   88.20       0.00       3.41       6.62      17.18      61.02      78.20        0.21    96.39   0.887
  WS2-SC8                   88.20       0.00       2.48       2.37      51.47      57.65      83.39        0.26   159.49   0.945
  WS2-SC81                  88.20       0.00       3.29       6.13      17.06      61.74      78.80        0.06    34.84   0.893
  WS2-SC86                  88.20       0.00       2.84       2.55      48.54      58.57      82.84        0.46   276.84   0.939
  WS2-SC87                  88.20       0.00       2.90       2.64      48.53      58.42      82.69        0.99   571.63   0.938
  WS2-SC88                  88.20       0.00       2.89       2.64      48.40      58.50      82.70        0.66   383.63   0.938
  WS2-SC90                  88.20       0.00       2.84       3.06      42.40      61.13      82.32        0.41   232.86   0.933
  WS3-SC13                  88.20       0.00       1.88       1.07      69.16      16.13      85.29        0.33   237.28   0.967
  WS3-SC15                  88.20       0.00       2.61       3.32      34.10      65.25      82.30        0.11    71.80   0.933
  WS3-SC17                  88.20       0.00       3.33       4.20      40.88      39.82      80.69        0.25   141.11   0.915
  WS3-SC18                  88.20       0.00       3.18       4.36      34.03      63.67      80.68        1.92   790.16   0.915
  WS3-SC19                  88.20       0.00       2.81       2.30      51.11      57.57      83.13        0.27   173.77   0.943
  WS3-SC20                  88.20       0.00       2.61       3.32      34.10      65.25      82.31        0.09    59.35   0.933
  WS3-SC234                 88.20       0.00       2.81       2.29      51.11      57.58      83.14        0.42   269.94   0.943
  WS3-SC235                 88.20       0.00       2.73       2.19      51.14      57.75      83.32        0.16   105.62   0.945
  WS3-SC236                 88.20       0.00       2.74       2.19      51.14      57.74      83.31        0.16   109.08   0.945
  WS3-SC237                 88.20       0.00       2.83       2.32      51.11      57.53      83.08        0.24   149.10   0.942
  WS3-SC238                 88.20       0.00       2.65       3.40      34.10      65.13      82.18        0.45   285.24   0.932
  WS3-SC239                 88.20       0.00       2.66       3.42      34.10      65.11      82.16        0.26   164.24   0.931
  WS3-SC24                  88.20       0.00       3.62       6.79      17.05      60.77      77.82        0.23    99.18   0.882
  WS3-SC286                 88.20       0.00       3.35       6.24      17.06      61.57      78.63        0.03    16.44   0.892
  WS3-SC289                 88.20       0.00       3.33       6.21      17.06      61.63      78.69        0.30   168.31   0.892
  WS3-SC29                  88.20       0.00       3.66       6.86      17.05      60.65      77.70        0.16    67.05   0.881
  WS3-SC290                 88.20       0.00       3.46       6.47      17.05      61.24      78.29        0.20    97.76   0.888
  WS3-SC292                 88.20       0.00       3.34       6.22      17.06      61.61      78.67        0.15    82.86   0.892
  WS3-SC293                 88.20       0.00       3.38       6.31      17.06      61.48      78.54        0.26   139.48   0.890
  WS3-SC294                 88.20       0.00       3.41       6.37      17.06      61.38      78.43        0.17    89.88   0.889
  WS3-SC295                 88.20       0.00       2.62       3.34      34.10      65.23      82.28        0.08    55.56   0.933
  WS3-SC296                 88.20       0.00       2.64       3.38      34.10      65.16      82.21        0.10    62.42   0.932
  WS3-SC297                 88.20       0.00       2.58       3.27      34.11      65.33      82.38        0.07    47.59   0.934
  WS3-SC298                 88.20       0.00       2.59       3.29      34.11      65.30      82.35        0.08    54.82   0.934
  WS3-SC299                 88.20       0.00       2.61       3.32      34.10      65.25      82.30        0.09    56.64   0.933
  WS3-SC3                   88.20       0.00       3.07       5.93      17.19      62.05      79.24        0.09    54.87   0.898
  WS3-SC300                 88.20       0.00       2.56       3.24      34.11      65.38      82.43        0.07    46.13   0.935
  WS3-SC301                 88.20       0.00       2.63       3.36      34.10      65.19      82.24        0.11    70.67   0.932
  WS3-SC302                 88.20       0.00       2.57       3.25      34.11      65.36      82.42        0.07    49.06   0.934
  WS3-SC304                 88.20       0.00       2.95       3.02      44.84      59.84      82.26        0.34   183.09   0.933
  WS3-SC305                 88.20       0.00       2.93       3.80      35.52      63.73      81.49        0.44   219.44   0.924
  WS3-SC306                 88.20       0.00       2.87       3.88      33.16      64.91      81.49        0.42   220.19   0.924
  WS3-SC307                 88.20       0.00       2.92       1.61      61.26      53.08      83.71        0.54   350.16   0.949
  WS3-SC308                 88.20       0.00       2.91       3.98      32.88      64.90      81.34        1.06   533.26   0.922
  WS3-SC309                 88.20       0.00       1.88       1.07      69.16      16.13      85.29        0.25   176.31   0.967
  WS3-SC310                 88.20       0.00       1.87       1.06      69.16      16.13      85.29        0.30   215.73   0.967
  WS3-SC365                 88.20       0.00       1.86       1.06      69.17      16.14      85.31        0.06    44.88   0.967
  WS3-SC368                 88.20       0.00       1.82       1.03      69.21      16.18      85.39        0.03    19.09   0.968
  WS3-SC370                 88.20       0.00       1.89       1.08      69.15      16.11      85.26        0.07    47.14   0.967
  WS3-SC371                 88.20       0.00       1.87       1.06      69.16      16.13      85.29        0.05    39.21   0.967
  WS3-SC372                 88.20       0.00       1.88       1.06      69.16      16.13      85.29        0.08    57.25   0.967
  WS3-SC373                 88.20       0.00       2.18       1.25      68.94      15.85      84.78        0.12    72.96   0.961
  WS3-SC374                 88.20       0.00       1.84       1.04      69.19      16.16      85.35        0.07    50.59   0.968
  WS3-SC375                 88.20       0.00       1.86       1.06      69.17      16.14      85.31        0.09    64.44   0.967
  WS3-SC376                 88.20       0.00       1.90       1.08      69.14      16.10      85.24        0.12    88.19   0.966
  WS3-SC377                 88.20       0.00       1.88       1.07      69.16      16.13      85.29        0.10    72.64   0.967
  WS3-SC378                 88.20       0.00       1.86       1.05      69.17      16.14      85.32        0.07    50.13   0.967
  WS3-SC379                 88.20       0.00       1.84       1.04      69.19      16.16      85.35        0.06    45.87   0.968
  WS3-SC38                  88.20       0.00       4.44       8.01      22.13      53.64      75.76        1.13   339.04   0.859
  WS3-SC380                 88.20       0.00       1.87       1.06      69.16      16.13      85.30        0.08    58.92   0.967
  WS3-SC381                 88.20       0.00       1.94       1.10      69.12      16.07      85.19        0.10    68.88   0.966
  WS3-SC4                   88.20       0.00       2.41       3.43      34.35      65.21      82.38        0.38   235.88   0.934
  WS3-SC414                 88.20       0.00       1.85       1.05      69.18      16.15      85.33        0.07    48.15   0.968
  WS3-SC451                 88.20       0.00       1.85       1.05      69.18      16.15      85.33        0.06    41.79   0.967
  WS3-SC452                 88.20       0.00       1.84       1.04      69.19      16.17      85.36        0.06    40.48   0.968
  WS3-SC453                 88.20       0.00       1.89       1.08      69.15      16.11      85.26        0.10    69.41   0.967
  WS3-SC454                 88.20       0.00       1.92       1.09      69.12      16.08      85.21        0.12    81.44   0.966
  WS3-SC455                 88.20       0.00       1.89       1.07      69.15      16.11      85.26        0.11    79.18   0.967
  WS3-SC456                 88.20       0.00       1.92       1.09      69.13      16.09      85.22        0.10    68.73   0.966
  WS3-SC457                 88.20       0.00       1.91       1.09      69.14      16.10      85.23        0.12    85.48   0.966
  WS3-SC458                 88.20       0.00       1.90       1.08      69.14      16.10      85.24        0.07    51.82   0.966
  WS3-SC478                 88.20       0.00       1.99       1.14      69.08      16.02      85.10        0.13    86.17   0.965
  WS3-SC480                 88.20       0.00       1.97       1.12      69.09      16.04      85.13        0.12    84.74   0.965
  WS3-SC481                 88.20       0.00       1.95       1.11      69.10      16.06      85.16        0.13    92.45   0.966
  WS3-SC482                 88.20       0.00       1.96       1.12      69.10      16.05      85.15        0.15    99.82   0.965
  WS3-SC483                 88.20       0.00       1.95       1.11      69.11      16.06      85.17        0.16   107.57   0.966
  WS3-SC487                 88.20       0.00       1.83       1.04      69.20      16.17      85.36        0.06    46.94   0.968
  WS3-SC488                 88.20       0.00       1.87       1.06      69.17      16.13      85.30        0.11    81.25   0.967
  WS3-SC490                 88.20       0.00       1.85       1.05      69.18      16.15      85.33        0.02    16.77   0.967
  WS3-SC511                 88.20       0.00       1.88       1.07      69.16      16.12      85.28        0.09    66.99   0.967
  WS3-SC512                 88.20       0.00       1.89       1.08      69.15      16.11      85.26        0.11    77.61   0.967
  WS3-SC513                 88.20       0.00       1.87       1.06      69.16      16.13      85.30        0.04    30.15   0.967
  WS3-SC526                 88.20       0.00       1.77       1.00      69.24      16.22      85.46        0.02    15.68   0.969
  WS3-SC527                 88.20       0.00       1.89       1.07      69.15      16.12      85.27        0.10    70.86   0.967
  WS3-SC528                 88.20       0.00       1.83       1.04      69.20      16.17      85.37        0.04    27.59   0.968
  WS3-SC530                 88.20       0.00       1.80       1.02      69.22      16.20      85.42        0.03    19.52   0.968
  WS3-SC534                 88.20       0.00       1.78       1.01      69.23      16.21      85.44        0.02    14.24   0.969
  WS3-SC535                 88.20       0.00       1.77       1.00      69.24      16.22      85.46        0.01     5.46   0.969
  WS3-SC551                 88.20       0.00       1.79       1.01      69.23      16.21      85.43        0.01     7.40   0.969
  WS3-SC561                 88.20       0.00       1.78       1.01      69.23      16.21      85.45        0.02    14.57   0.969
  WS3-SC562                 88.20       0.00       1.86       1.06      69.17      16.14      85.31        0.09    63.95   0.967
  WS3-SC563                 88.20       0.00       1.86       1.05      69.17      16.14      85.32        0.07    49.48   0.967
  WS3-SC568                 88.20       0.00       1.92       1.09      69.13      16.09      85.21        0.09    61.51   0.966
  WS3-SC569                 88.20       0.00       1.88       1.07      69.16      16.13      85.29        0.08    59.93   0.967
  WS3-SC589                 88.20       0.00       2.07       1.18      69.02      15.95      84.98        0.10    64.43   0.963
  WS3-SC590                 88.20       0.00       1.82       1.03      69.20      16.18      85.38        0.05    33.86   0.968
  WS3-SC65                  88.20       0.00       3.54       6.64      17.05      60.98      78.03        0.29   135.65   0.885
  WS3-SC7                   88.20       0.00       3.42       6.64      17.18      60.98      78.16        0.21    95.09   0.886
  WS3-SC76                  88.20       0.00       2.98       2.20      55.00      55.55      83.05        0.28   162.56   0.942
  WS3-SC79                  88.20       0.00       2.86       3.56      36.76      63.44      81.82        0.67   364.13   0.928
  WS3-SC82                  88.20       0.00       3.30       6.13      17.06      61.74      78.80        0.06    34.76   0.893
  WS3-SC9                   88.20       0.00       2.44       2.31      51.49      57.74      83.48        0.43   272.26   0.947
  WS3-SC92                  88.20       0.00       3.31       6.17      17.06      61.68      78.74        0.02    12.29   0.893
  WS4-SC176                 88.20       0.00       3.18       5.18      25.03      67.34      79.85        1.64   631.90   0.905
  WS4-SC177                 88.20       0.00       2.85       4.78      21.91      69.64      80.60        0.74   362.25   0.914
  WS4-SC178                 88.20       0.00       2.94       1.49      63.08      52.26      83.80        0.41   263.81   0.950
  WS4-SC179                 88.20       0.00       1.83       1.04      69.19      16.17      85.36        0.11    80.76   0.968
  WS4-SC180                 88.20       0.00       1.83       1.04      69.19      16.17      85.36        0.12    87.18   0.968
  WS4-SC181                 88.20       0.00       1.85       1.05      69.18      16.16      85.34        0.14   101.62   0.968
  WS4-SC182                 88.20       0.00       1.86       1.05      69.17      16.14      85.32        0.17   121.10   0.967
  WS4-SC183                 88.20       0.00       1.86       1.06      69.17      16.14      85.31        0.15   110.27   0.967
  WS4-SC184                 88.20       0.00       2.80       2.28      51.12      57.61      83.16        0.33   213.25   0.943
  WS4-SC185                 88.20       0.00       2.78       2.25      51.12      57.64      83.20        0.19   122.89   0.943
  WS4-SC186                 88.20       0.00       2.68       3.45      34.09      65.06      82.11        0.09    53.98   0.931
  WS4-SC187                 88.20       0.00       2.73       3.55      34.09      64.91      81.95        0.08    46.81   0.929
  WS4-SC188                 88.20       0.00       2.69       3.46      34.09      65.04      82.08        0.09    56.55   0.931
  WS4-SC189                 88.20       0.00       2.80       3.66      34.08      64.73      81.77        0.14    77.42   0.927
  WS4-SC190                 88.20       0.00       2.66       3.42      34.10      65.10      82.15        0.11    67.91   0.931
  WS4-SC191                 88.20       0.00       2.72       3.53      34.09      64.93      81.97        0.15    89.38   0.929
  WS4-SC192                 88.20       0.00       2.74       3.56      34.09      64.89      81.93        0.16    95.88   0.929
  WS4-SC193                 88.20       0.00       2.80       3.66      34.08      64.73      81.77        0.19   104.28   0.927
  WS4-SC194                 88.20       0.00       2.89       3.84      34.06      64.46      81.49        0.22   113.55   0.924
  WS4-SC195                 88.20       0.00       2.78       3.64      34.08      64.77      81.81        0.20   116.56   0.928
  WS4-SC196                 88.20       0.00       2.76       3.60      34.08      64.83      81.87        0.23   135.09   0.928
  WS4-SC197                 88.20       0.00       2.72       3.53      34.09      64.94      81.98        0.20   121.45   0.930
  WS4-SC205                 88.20       0.00       2.72       3.52      34.09      64.94      81.99        0.15    87.73   0.930
  WS4-SC206                 88.20       0.00       2.67       3.44      34.09      65.07      82.12        0.15    96.17   0.931
  WS4-SC207                 88.20       0.00       2.70       3.49      34.09      64.99      82.03        0.16    99.27   0.930
  WS4-SC208                 88.20       0.00       2.86       3.78      34.07      64.55      81.58        0.18    97.69   0.925
  WS4-SC209                 88.20       0.00       2.69       3.47      34.09      65.02      82.07        0.16    98.57   0.930
  WS4-SC210                 88.20       0.00       2.73       3.55      34.09      64.91      81.95        0.14    85.09   0.929
  WS4-SC211                 88.20       0.00       2.71       3.50      34.09      64.98      82.02        0.16    96.58   0.930
  WS4-SC212                 88.20       0.00       2.77       3.62      34.08      64.80      81.84        0.16    89.09   0.928
  WS4-SC213                 88.20       0.00       2.81       3.69      34.08      64.69      81.73        0.18    97.74   0.927
  WS4-SC214                 88.20       0.00       2.75       3.57      34.08      64.87      81.91        0.19   114.21   0.929
  WS4-SC215                 88.20       0.00       2.86       2.36      51.10      57.47      83.02        0.26   160.60   0.941
  WS4-SC216                 88.20       0.00       2.83       2.32      51.10      57.53      83.08        0.21   134.88   0.942
  WS4-SC25                  88.20       0.00       3.92       7.40      17.04      59.86      76.90        1.57   554.69   0.872
  WS4-SC251                 88.20       0.00       2.67       3.43      34.09      65.08      82.13        0.20   123.27   0.931
  WS4-SC252                 88.20       0.00       2.66       3.42      34.10      65.10      82.15        0.23   144.03   0.931
  WS4-SC253                 88.20       0.00       2.64       3.38      34.10      65.16      82.21        0.21   132.49   0.932
  WS4-SC254                 88.20       0.00       2.67       3.43      34.10      65.09      82.13        0.12    75.37   0.931
  WS4-SC255                 88.20       0.00       2.67       3.43      34.10      65.09      82.14        0.15    92.00   0.931
  WS4-SC256                 88.20       0.00       2.66       3.41      34.10      65.11      82.16        0.13    80.06   0.932
  WS4-SC257                 88.20       0.00       2.65       3.40      34.10      65.13      82.17        0.09    58.30   0.932
  WS4-SC258                 88.20       0.00       2.67       3.43      34.10      65.09      82.14        0.11    66.58   0.931
  WS4-SC259                 88.20       0.00       2.66       3.41      34.10      65.11      82.16        0.10    63.97   0.932
  WS4-SC260                 88.20       0.00       2.68       3.45      34.09      65.06      82.11        0.12    72.10   0.931
  WS4-SC261                 88.20       0.00       2.64       3.38      34.10      65.17      82.22        0.09    59.18   0.932
  WS4-SC262                 88.20       0.00       2.66       3.42      34.10      65.11      82.16        0.11    67.09   0.931
  WS4-SC263                 88.20       0.00       2.67       3.43      34.10      65.09      82.14        0.11    68.44   0.931
  WS4-SC264                 88.20       0.00       2.61       3.32      34.10      65.25      82.31        0.05    36.04   0.933
  WS4-SC265                 88.20       0.00       2.61       3.33      34.10      65.24      82.29        0.06    39.81   0.933
  WS4-SC266                 88.20       0.00       2.65       3.40      34.10      65.13      82.18        0.08    53.42   0.932
  WS4-SC267                 88.20       0.00       2.70       3.49      34.09      65.00      82.04        0.12    71.52   0.930
  WS4-SC268                 88.20       0.00       2.68       3.46      34.09      65.05      82.10        0.10    62.33   0.931
  WS4-SC269                 88.20       0.00       2.67       3.43      34.10      65.09      82.13        0.12    74.69   0.931
  WS4-SC27                  88.20       0.00       3.11       1.80      61.20      52.71      83.32        1.88  1050.47   0.945
  WS4-SC270                 88.20       0.00       2.67       3.43      34.10      65.09      82.14        0.11    70.96   0.931
  WS4-SC271                 88.20       0.00       2.65       3.40      34.10      65.13      82.18        0.10    66.63   0.932
  WS4-SC272                 88.20       0.00       2.65       3.41      34.10      65.12      82.17        0.10    66.35   0.932
  WS4-SC273                 88.20       0.00       2.66       3.42      34.10      65.10      82.15        0.11    68.28   0.931
  WS4-SC274                 88.20       0.00       2.72       3.53      34.09      64.94      81.98        0.13    79.88   0.930
  WS4-SC275                 88.20       0.00       2.67       3.44      34.09      65.08      82.12        0.11    67.00   0.931
  WS4-SC276                 88.20       0.00       3.47       6.48      17.05      61.22      78.28        0.20    97.71   0.887
  WS4-SC277                 88.20       0.00       3.49       6.52      17.05      61.16      78.21        0.25   120.32   0.887
  WS4-SC278                 88.20       0.00       3.48       6.51      17.05      61.17      78.23        0.20    96.85   0.887
  WS4-SC279                 88.20       0.00       3.46       6.47      17.05      61.23      78.28        0.25   124.77   0.888
  WS4-SC28                  88.20       0.00       1.81       1.02      69.21      16.19      85.40        0.12    84.96   0.968
  WS4-SC280                 88.20       0.00       3.56       6.67      17.05      60.93      77.98        0.18    81.91   0.884
  WS4-SC281                 88.20       0.00       3.52       6.59      17.05      61.05      78.11        0.19    91.47   0.886
  WS4-SC282                 88.20       0.00       3.57       6.69      17.05      60.90      77.95        0.25   111.55   0.884
  WS4-SC283                 88.20       0.00       3.67       6.90      17.05      60.60      77.65        0.18    77.04   0.880
  WS4-SC284                 88.20       0.00       3.62       6.79      17.05      60.76      77.81        0.25   107.16   0.882
  WS4-SC285                 88.20       0.00       3.63       6.81      17.05      60.73      77.78        0.21    92.19   0.882
  WS4-SC287                 88.20       0.00       3.51       6.58      17.05      61.08      78.13        0.13    63.38   0.886
  WS4-SC288                 88.20       0.00       3.40       6.35      17.06      61.41      78.46        0.19    98.21   0.890
  WS4-SC291                 88.20       0.00       3.38       6.30      17.06      61.49      78.54        0.08    41.38   0.891
  WS4-SC30                  88.20       0.00       3.53       6.61      17.05      61.03      78.08        0.16    73.22   0.885
  WS4-SC303                 88.20       0.00       3.02       1.57      62.82      52.23      83.64        0.51   314.06   0.948
  WS4-SC316                 88.20       0.00       1.91       1.09      69.13      16.10      85.23        0.11    79.16   0.966
  WS4-SC317                 88.20       0.00       1.87       1.06      69.16      16.13      85.29        0.09    66.66   0.967
  WS4-SC319                 88.20       0.00       1.93       1.10      69.12      16.08      85.20        0.08    59.09   0.966
  WS4-SC320                 88.20       0.00       1.89       1.07      69.15      16.12      85.27        0.10    71.43   0.967
  WS4-SC321                 88.20       0.00       1.86       1.06      69.17      16.14      85.31        0.05    39.44   0.967
  WS4-SC322                 88.20       0.00       1.88       1.06      69.16      16.13      85.29        0.07    47.29   0.967
  WS4-SC323                 88.20       0.00       1.87       1.06      69.17      16.14      85.30        0.06    42.34   0.967
  WS4-SC324                 88.20       0.00       1.84       1.04      69.19      16.16      85.35        0.04    30.12   0.968
  WS4-SC325                 88.20       0.00       1.93       1.10      69.12      16.08      85.20        0.12    85.80   0.966
  WS4-SC326                 88.20       0.00       1.89       1.07      69.15      16.12      85.27        0.10    70.14   0.967
  WS4-SC327                 88.20       0.00       2.06       1.18      69.02      15.96      84.98        0.15    94.34   0.963
  WS4-SC328                 88.20       0.00       2.04       1.17      69.04      15.97      85.01        0.13    85.14   0.964
  WS4-SC329                 88.20       0.00       1.93       1.10      69.12      16.08      85.20        0.09    62.99   0.966
  WS4-SC33                  88.20       0.00       3.47       5.17      32.67      46.91      79.58        0.49   246.57   0.902
  WS4-SC330                 88.20       0.00       2.05       1.17      69.03      15.97      85.00        0.23   148.02   0.964
  WS4-SC331                 88.20       0.00       1.87       1.06      69.17      16.14      85.30        0.08    54.57   0.967
  WS4-SC332                 88.20       0.00       1.87       1.06      69.16      16.13      85.30        0.07    50.61   0.967
  WS4-SC333                 88.20       0.00       1.89       1.07      69.15      16.12      85.27        0.11    77.55   0.967
  WS4-SC334                 88.20       0.00       1.88       1.07      69.16      16.13      85.29        0.07    50.60   0.967
  WS4-SC335                 88.20       0.00       1.90       1.08      69.14      16.11      85.25        0.08    54.10   0.967
  WS4-SC336                 88.20       0.00       1.86       1.05      69.17      16.14      85.32        0.06    42.16   0.967
  WS4-SC337                 88.20       0.00       1.86       1.06      69.17      16.14      85.31        0.06    39.99   0.967
  WS4-SC338                 88.20       0.00       1.80       1.02      69.22      16.19      85.41        0.02    15.26   0.968
  WS4-SC339                 88.20       0.00       1.75       0.99      69.26      16.24      85.50        0.01     7.87   0.969
  WS4-SC340                 88.20       0.00       1.80       1.02      69.22      16.19      85.41        0.04    28.68   0.968
  WS4-SC341                 88.20       0.00       1.85       1.05      69.18      16.15      85.33        0.06    44.89   0.968
  WS4-SC345                 88.20       0.00       1.87       1.06      69.17      16.14      85.30        0.07    50.05   0.967
  WS4-SC346                 88.20       0.00       1.89       1.07      69.15      16.12      85.27        0.09    61.24   0.967
  WS4-SC347                 88.20       0.00       2.02       1.15      69.06      16.00      85.06        0.14    90.66   0.964
  WS4-SC348                 88.20       0.00       1.89       1.07      69.15      16.12      85.27        0.11    78.70   0.967
  WS4-SC349                 88.20       0.00       1.83       1.04      69.20      16.17      85.37        0.05    39.48   0.968
  WS4-SC350                 88.20       0.00       1.87       1.06      69.16      16.13      85.29        0.19   133.46   0.967
  WS4-SC353                 88.20       0.00       1.89       1.07      69.15      16.12      85.27        0.10    71.40   0.967
  WS4-SC354                 88.20       0.00       1.90       1.08      69.14      16.10      85.24        0.10    70.63   0.966
  WS4-SC355                 88.20       0.00       1.94       1.10      69.11      16.07      85.19        0.13    89.96   0.966
  WS4-SC356                 88.20       0.00       1.88       1.07      69.16      16.12      85.28        0.10    67.95   0.967
  WS4-SC357                 88.20       0.00       1.91       1.09      69.13      16.09      85.23        0.11    75.15   0.966
  WS4-SC358                 88.20       0.00       1.92       1.09      69.13      16.09      85.22        0.10    68.52   0.966
  WS4-SC359                 88.20       0.00       1.96       1.11      69.10      16.05      85.16        0.13    88.78   0.965
  WS4-SC360                 88.20       0.00       1.92       1.09      69.13      16.09      85.21        0.10    70.19   0.966
  WS4-SC361                 88.20       0.00       1.90       1.08      69.15      16.11      85.26        0.09    67.25   0.967
  WS4-SC362                 88.20       0.00       1.87       1.06      69.16      16.13      85.29        0.06    41.04   0.967
  WS4-SC363                 88.20       0.00       1.89       1.07      69.15      16.12      85.27        0.08    57.48   0.967
  WS4-SC364                 88.20       0.00       1.88       1.07      69.16      16.13      85.29        0.07    51.20   0.967
  WS4-SC366                 88.20       0.00       1.78       1.00      69.24      16.22      85.46        0.01     9.89   0.969
  WS4-SC367                 88.20       0.00       1.81       1.02      69.21      16.19      85.40        0.03    23.54   0.968
  WS4-SC369                 88.20       0.00       1.83       1.03      69.20      16.17      85.37        0.03    21.83   0.968
  WS4-SC39                  88.20       0.00       4.12       7.11      25.04      51.94      76.98        2.48   860.46   0.873
  WS4-SC40                  88.20       0.00       3.71       6.97      17.05      60.50      77.55        0.34   139.86   0.879
  WS4-SC424                 88.20       0.00       1.99       1.13      69.08      16.03      85.10        0.14    92.44   0.965
  WS4-SC43                  88.20       0.00       2.84       2.34      51.10      57.50      83.05        0.32   199.37   0.942
  WS4-SC432                 88.20       0.00       1.85       1.05      69.18      16.15      85.33        0.07    51.43   0.967
  WS4-SC433                 88.20       0.00       1.87       1.06      69.16      16.13      85.29        0.10    71.38   0.967
  WS4-SC434                 88.20       0.00       1.87       1.06      69.16      16.13      85.30        0.09    66.17   0.967
  WS4-SC435                 88.20       0.00       1.87       1.06      69.16      16.13      85.29        0.08    59.46   0.967
  WS4-SC436                 88.20       0.00       1.92       1.09      69.13      16.09      85.21        0.11    76.17   0.966
  WS4-SC437                 88.20       0.00       1.91       1.09      69.13      16.09      85.23        0.08    57.95   0.966
  WS4-SC438                 88.20       0.00       1.96       1.11      69.10      16.06      85.16        0.10    68.44   0.965
  WS4-SC439                 88.20       0.00       1.97       1.13      69.09      16.04      85.13        0.13    86.08   0.965
  WS4-SC44                  88.20       0.00       2.75       3.58      34.08      64.86      81.90        0.15    86.68   0.929
  WS4-SC45                  88.20       0.00       3.46       6.46      17.05      61.25      78.31        0.20   100.74   0.888
  WS4-SC459                 88.20       0.00       1.87       1.06      69.16      16.13      85.29        0.05    38.41   0.967
  WS4-SC46                  88.20       0.00       1.87       1.06      69.17      16.14      85.30        0.19   133.81   0.967
  WS4-SC47                  88.20       0.00       2.79       2.27      51.12      57.61      83.17        0.26   171.73   0.943
  WS4-SC470                 88.20       0.00       1.94       1.11      69.11      16.07      85.18        0.19   135.10   0.966
  WS4-SC471                 88.20       0.00       1.94       1.10      69.12      16.07      85.19        0.19   133.35   0.966
  WS4-SC472                 88.20       0.00       1.86       1.06      69.17      16.14      85.31        0.10    73.64   0.967
  WS4-SC473                 88.20       0.00       1.91       1.08      69.14      16.10      85.24        0.11    75.38   0.966
  WS4-SC474                 88.20       0.00       1.91       1.09      69.13      16.10      85.23        0.12    85.11   0.966
  WS4-SC475                 88.20       0.00       1.92       1.09      69.13      16.09      85.21        0.12    82.43   0.966
  WS4-SC476                 88.20       0.00       1.98       1.13      69.09      16.04      85.13        0.13    85.67   0.965
  WS4-SC477                 88.20       0.00       1.97       1.12      69.09      16.05      85.14        0.11    76.82   0.965
  WS4-SC479                 88.20       0.00       1.79       1.02      69.22      16.20      85.43        0.01    10.82   0.969
  WS4-SC48                  88.20       0.00       2.79       3.65      34.08      64.75      81.79        0.15    82.29   0.927
  WS4-SC489                 88.20       0.00       1.88       1.07      69.16      16.12      85.28        0.11    81.00   0.967
  WS4-SC49                  88.20       0.00       3.78       7.13      17.05      60.26      77.30        0.25    98.48   0.876
  WS4-SC491                 88.20       0.00       1.86       1.06      69.17      16.14      85.31        0.10    74.10   0.967
  WS4-SC503                 88.20       0.00       1.92       1.09      69.13      16.09      85.22        0.08    53.81   0.966
  WS4-SC51                  88.20       0.00       2.82       3.70      34.07      64.67      81.71        0.24   133.11   0.926
  WS4-SC510                 88.20       0.00       4.64       9.18      13.46      60.93      74.39        0.53   126.38   0.843
  WS4-SC519                 88.20       0.00       1.91       1.08      69.14      16.10      85.24        0.08    60.00   0.966
  WS4-SC52                  88.20       0.00       3.64       6.84      17.05      60.69      77.74        0.24   103.32   0.881
  WS4-SC520                 88.20       0.00       1.79       1.01      69.23      16.21      85.43        0.03    23.09   0.969
  WS4-SC521                 88.20       0.00       1.82       1.03      69.20      16.18      85.38        0.02    16.39   0.968
  WS4-SC522                 88.20       0.00       1.79       1.01      69.23      16.21      85.44        0.01    10.79   0.969
  WS4-SC523                 88.20       0.00       1.79       1.01      69.23      16.21      85.43        0.02    15.92   0.969
  WS4-SC524                 88.20       0.00       1.77       1.00      69.25      16.23      85.48        0.01     6.73   0.969
  WS4-SC525                 88.20       0.00       1.81       1.02      69.21      16.19      85.41        0.02    15.07   0.968
  WS4-SC53                  88.20       0.00       2.72       3.52      34.09      64.95      82.00        0.18   107.12   0.930
  WS4-SC55                  88.20       0.00       2.78       3.63      34.08      64.78      81.82        0.22   124.24   0.928
  WS4-SC550                 88.20       0.00       1.86       1.05      69.17      16.14      85.32        0.07    52.62   0.967
  WS4-SC552                 88.20       0.00       1.86       1.06      69.17      16.14      85.31        0.10    75.49   0.967
  WS4-SC555                 88.20       0.00       1.83       1.04      69.19      16.17      85.36        0.05    39.97   0.968
  WS4-SC556                 88.20       0.00       1.82       1.03      69.20      16.18      85.39        0.04    31.11   0.968
  WS4-SC564                 88.20       0.00       1.85       1.05      69.18      16.15      85.33        0.06    46.86   0.967
  WS4-SC565                 88.20       0.00       1.85       1.05      69.18      16.15      85.33        0.05    34.51   0.967
  WS4-SC566                 88.20       0.00       1.85       1.05      69.18      16.15      85.33        0.07    49.40   0.967
  WS4-SC567                 88.20       0.00       1.83       1.04      69.19      16.17      85.36        0.04    28.31   0.968
  WS4-SC57                  88.20       0.00       2.70       3.49      34.09      65.00      82.05        0.18   109.06   0.930
  WS4-SC570                 88.20       0.00       1.86       1.06      69.17      16.14      85.31        0.05    36.72   0.967
  WS4-SC571                 88.20       0.00       1.86       1.05      69.18      16.15      85.32        0.05    36.37   0.967
  WS4-SC58                  88.20       0.00       2.79       3.65      34.08      64.75      81.79        0.21   118.85   0.927
  WS4-SC586                 88.20       0.00       1.88       1.07      69.16      16.13      85.29        0.08    55.22   0.967
  WS4-SC587                 88.20       0.00       1.83       1.04      69.19      16.17      85.36        0.04    28.91   0.968
  WS4-SC588                 88.20       0.00       1.86       1.05      69.17      16.15      85.32        0.06    39.82   0.967
  WS4-SC61                  88.20       0.00       2.67       3.44      34.09      65.07      82.11        0.23   144.46   0.931
  WS4-SC63                  88.20       0.00       4.58       8.74      17.03      57.86      74.89        0.91   237.58   0.849
  WS4-SC64                  88.20       0.00       2.73       3.54      34.09      64.92      81.97        0.48   284.34   0.929
  WS4-SC67                  88.20       0.00       2.72       3.52      34.09      64.94      81.99        0.12    69.19   0.930
  WS4-SC68                  88.20       0.00       2.76       3.60      34.08      64.83      81.87        0.48   276.24   0.928
[...]
  P4Z4.5-MH-02                0.22      0.22      0.25      0.19         0.20
  P4Z4.5-MH-03                0.14      0.21      0.14      0.19         0.13
  P4Z4.5-MH-04                0.30      0.30      0.32      0.12         0.15
  P4Z4.5-MH-05                0.32      0.32      0.37      0.28         0.28
  P4Z4.5-MH-06                0.34      0.37      0.37      0.28         0.26
  P4Z4.5-MH-07                0.37      0.37      0.38      0.01         0.18
  P4Z4.5-MH-08                0.38      0.38      0.40      0.01         0.17
  P4Z4.5-MH-09                0.39      0.40      0.42      0.17         0.20
  P4Z4.5-MH-10                0.55      0.55      0.61      0.35         0.37
  P4Z4.5-MH-11                0.61      0.61      0.64      0.43         0.54
  P4Z4.5-MH-12                0.01      0.64      0.01      0.45         0.01
  P4Z4.5-MH-13                0.01      0.01      1.11      0.01         0.01
  P4Z4.6-MH-01                0.75      0.75      1.04      0.15         0.09
  P4Z4.6-MH-02                0.94      0.94     23.64      0.39         0.40
  P4Z4.6-MH-03               23.62     23.62     23.68      0.30         0.37
  P4Z4.6-MH-04                0.01      0.01     23.62      0.01         0.01
  P4Z4.6-MH-05                0.39      0.39      0.73      0.01         0.01
  P4Z4.7-MH-01                0.25      0.25      0.73      0.01         0.01
  P4Z4.8-MH-01                0.67      0.67      0.71      0.10         0.12
  P4Z4.8-MH-02                0.70      0.70     23.63      0.01         0.01
  P4Z4.9-MH-01                0.20      0.20      0.32      0.01         0.01
  P4Z4.9-MH-02                0.29      0.29      0.34      0.21         0.25
  P4Z4.9-MH-03                0.31      0.31      0.33      0.25         0.30
  P4Z4.9-MH-04                0.18      0.33      0.18      0.25         0.18
  P4Z4.9-MH-05                0.33      0.33      0.37      0.12         0.14
  P4Z4.9-MH-06                0.37      0.37      1.07      0.01         0.01
  P5Z5.1-MH-01                0.31      0.31      0.36      0.11         0.15
  P5Z5.1-MH-02                0.27      0.32      0.27      0.26         0.23
  P5Z5.1-MH-03                0.35      0.35      0.37      0.20         0.22
  P5Z5.1-MH-04                0.37      0.37      0.38      0.37         0.37
  P5Z5.1-MH-05                0.35      0.35      0.40      0.31         0.34
  P5Z5.1-MH-06                0.39      0.40      0.39      0.31         0.39
  P5Z5.1-MH-07                0.35      0.39      0.35      0.34         0.35
  P5Z5.1-MH-08                0.30      0.30      0.30      0.26         0.30
  P5Z5.1-MH-09                0.01      0.27      0.01      0.25         0.01
  P5Z5.2-MH-01                0.09      0.09      0.31      0.01         0.01
  P5Z5.2-MH-02                0.01      0.16      0.01      0.18         0.01
  P5Z5.2-MH-03                0.17      0.28      0.17      0.29         0.17
  P5Z5.2-MH-04                0.37      0.37      0.38      0.22         0.34
  P5Z5.2-MH-05                0.38      0.38      0.47      0.30         0.32
  
  
  ***************************
  Link Pollutant Load Summary
  ***************************
  
  ----------------------------------
                                 TSS
  Link                            kg
  ----------------------------------
  P1Z1.1-MH-01                 4.941
  P1Z1.1-MH-02                11.764
  P1Z1.1-MH-03                12.809
  P1Z1.1-MH-04                14.818
  P1Z1.1-MH-05                19.194
  P1Z1.1-MH-06                20.930
  P1Z1.1-MH-07                20.587
  P1Z1.1-MH-08                26.062
  P1Z1.1-MH-09                36.346
  P1Z1.1-MH-10                41.289
  P1Z1.1-MH-11                50.434
  P1Z1.1-MH-12                65.139
  P1Z1.1-MH-13                65.528
  P1Z1.1-MH-14                66.171
  P1Z1.1-MH-15                65.990
  P1Z1.1-MH-16                69.330
  P1Z1.1-MH-17               144.808
  P1Z1.1-MH-18               144.503
  P1Z1.1-MH-19               142.632
  P1Z1.1-MH-20               145.864
  P1Z1.1-MH-21               142.474
  P1Z1.1-MH-22               150.841
  P1Z1.1-MH-23               151.879
  P1Z1.1-MH-24               153.097
  P1Z1.1-MH-25               153.248
  P1Z1.1-MH-26               152.480
  P1Z1.1-MH-27               150.646
  P1Z1.1-MH-28               146.371
  P1Z1.1-MH-29               144.031
  P1Z1.1-MH-30               144.438
  P1Z1.1-MH-31               139.896
  P1Z1.1-MH-32               140.259
  P1Z1.1-MH-33               196.176
  P1Z1.11-MH-01                1.871
  P1Z1.12-MH-01                9.479
  P1Z1.13-MH-01                0.051
  P1Z1.13-MH-02                0.184
  P1Z1.13-MH-03                1.715
  P1Z1.2-MH-01                 0.280
  P1Z1.2-MH-02                 0.296
  P1Z1.2-MH-03                 4.698
  P1Z1.2-MH-04                 5.355
  P1Z1.2-MH-05                 6.175
  P1Z1.2-MH-06                 6.176
  P1Z1.2-MH-07                11.627
  P1Z1.2-MH-08                12.457
  P1Z1.2-MH-09                12.389
  P1Z1.2-MH-10                12.137
  P1Z1.2-MH-11                13.452
  P1Z1.2-MH-12                13.581
  P1Z1.2-MH-13                16.918
  P1Z1.2-MH-14                19.763
  P1Z1.2-MH-15                22.775
  P1Z1.2-MH-16                23.729
  P1Z1.2-MH-17                24.144
  P1Z1.2-MH-18                25.489
  P1Z1.2-MH-19                59.487
  P1Z1.2-MH-20                58.230
  P1Z1.2-MH-21                56.183
  P1Z1.2-MH-22                56.024
  P1Z1.2-MH-23                55.489
  P1Z1.2-MH-24                54.515
  P1Z1.2-MH-25                55.194
  P1Z1.2-MH-26                54.220
  P1Z1.2-MH-27                55.543
  P1Z1.2-MH-28                54.102
  P1Z1.2-MH-29                54.011
  P1Z1.2-MH-30                57.640
  P1Z1.3-MH-01                 7.222
  P1Z1.3-MH-02                 8.811
  P1Z1.3-MH-03                10.153
  P1Z1.3-MH-04                14.470
  P1Z1.3-MH-05                17.534
  P1Z1.3-MH-06                47.772
  P1Z1.3-MH-07                66.883
  P1Z1.3-MH-08                78.789
  P1Z1.4-MH-01                 0.003
  P1Z1.4-MH-02                 1.262
  P1Z1.4-MH-03                14.037
  P1Z1.4-MH-04                18.042
  P1Z1.4-MH-05                28.452
  P1Z1.4-MH-06                31.514
  P1Z1.4-MH-07                33.519
  P1Z1.4-MH-08                34.938
  P1Z1.4-MH-09                34.991
  P1Z1.5-MH-01                 5.766
  P1Z1.5-MH-02                 8.975
  P1Z1.5-MH-03                12.579
  P1Z1.5-MH-04                16.315
  P1Z1.5-MH-05                17.957
  P1Z1.5-MH-06                21.394
  P1Z1.5-MH-07                24.542
  P1Z1.6-MH-01                 3.236
  P1Z1.6-MH-02                 4.833
  P1Z1.6-MH-03                 6.521
  P1Z1.6-MH-04                 8.599
  P1Z1.7-MH-01                 2.211
  P1Z1.7-MH-02                 7.052
  P1Z1.7-MH-03                 9.192
  P1Z1.7-MH-04                13.021
  P1Z1.8-MH-01                 1.535
  P1Z1.8-MH-02                 1.556
  P1Z1.8-MH-03                 2.807
  P1Z1.8-MH-11                 2.796
  P1Z1.9-MH-01                 3.001
  P1Z1.9-MH-02                 6.652
  P1Z1.9-MH-03                 7.960
  P1Z1.9-MH-04                 9.205
  P1Z1.9-MH-05                 9.080
  P1Z1.9-MH-06                 9.680
  P1Z1.9-MH-07                10.759
  P1Z1.9-MH-08                11.179
  P2Z2.1-MH-01                 0.000
  P2Z2.1-MH-02                 0.000
  P2Z2.1-MH-03                 0.725
  P2Z2.1-MH-04                13.640
  P2Z2.1-MH-05                13.522
  P2Z2.1-MH-06                14.955
  P2Z2.1-MH-07                14.896
  P2Z2.1-MH-08                16.991
  P2Z2.1-MH-09                17.685
  P2Z2.1-MH-10                17.279
  P2Z2.1-MH-11                19.493
  P2Z2.1-MH-12                21.056
  P2Z2.1-MH-13                21.982
  P2Z2.1-MH-14                22.577
  P2Z2.1-MH-15                23.740
  P2Z2.1-MH-16                23.257
  P2Z2.1-MH-17                24.419
  P2Z2.1-MH-18                27.825
  P2Z2.1-MH-19                81.453
  P2Z2.1-MH-20                79.826
  P2Z2.1-MH-21                79.045
  P2Z2.1-MH-22                81.683
  P2Z2.1-MH-23               119.316
  P2Z2.10-MH-01                4.423
  P2Z2.11-MH-01               39.660
  P2Z2.2-MH-01                 0.003
  P2Z2.2-MH-02                 3.381
  P2Z2.2-MH-03                 4.205
  P2Z2.2-MH-04                 5.194
  P2Z2.2-MH-05                10.709
  P2Z2.2-MH-06                11.751
  P2Z2.2-MH-07                11.757
  P2Z2.2-MH-08                12.285
  P2Z2.2-MH-09                14.188
  P2Z2.2-MH-10                14.213
  P2Z2.2-MH-11                15.270
  P2Z2.2-MH-12                15.134
  P2Z2.2-MH-13                15.225
  P2Z2.2-MH-14                22.362
  P2Z2.2-MH-15                22.008
  P2Z2.2-MH-16                22.885
  P2Z2.2-MH-17                22.833
  P2Z2.2-MH-18                54.895
  P2Z2.3-MH-01                 1.352
  P2Z2.3-MH-02                 1.345
  P2Z2.3-MH-03                 1.349
  P2Z2.3-MH-04                 7.823
  P2Z2.3-MH-05                 7.799
  P2Z2.3-MH-06                12.478
  P2Z2.3-MH-07                15.646
  P2Z2.3-MH-08                16.981
  P2Z2.3-MH-09                26.577
  P2Z2.3-MH-10                30.144
  P2Z2.3-MH-11                31.093
  P2Z2.3-MH-12                33.352
  P2Z2.3-MH-13                37.804
  P2Z2.3-MH-14                44.842
  P2Z2.3-MH-15                45.166
  P2Z2.3-MH-16                48.142
  P2Z2.3-MH-17                50.328
  P2Z2.3-MH-18                52.156
  P2Z2.4-MH-01                 0.785
  P2Z2.4-MH-02                 2.406
  P2Z2.4-MH-03                 4.277
  P2Z2.4-MH-04                 5.822
  P2Z2.4-MH-05                22.736
  P2Z2.4-MH-06                26.698
  P2Z2.4-MH-07                32.316
  P2Z2.5-MH-01                 5.306
  P2Z2.5-MH-02                 6.071
  P2Z2.5-MH-03                10.027
  P2Z2.5-MH-04                11.504
  P2Z2.6-MH-01                28.398
  P2Z2.6-MH-03                29.436
  P2Z2.6-MH-04                31.832
  P2Z2.7-MH-01                 8.200
  P2Z2.7-MH-02                16.160
  P2Z2.8-MH-01                 3.571
  P2Z2.9-MH-01                 3.299
  P3Z3.1-MH-01                 0.559
  P3Z3.1-MH-02                 3.118
  P3Z3.1-MH-03                 3.334
  P3Z3.1-MH-04                 4.597
  P3Z3.1-MH-05                 9.797
  P3Z3.1-MH-06                10.065
  P3Z3.1-MH-07                14.389
  P3Z3.1-MH-08                14.334
  P3Z3.1-MH-09                17.124
  P3Z3.1-MH-10                19.960
  P3Z3.1-MH-11                17.030
  P3Z3.1-MH-12                20.507
  P3Z3.1-MH-13                22.680
  P3Z3.1-MH-14                25.365
  P3Z3.1-MH-15                23.376
  P3Z3.1-MH-16                90.532
  P3Z3.1-MH-17                94.928
  P3Z3.1-MH-18                94.752
  P3Z3.1-MH-19               121.727
  P3Z3.10-MH-01                4.960
  P3Z3.10-MH-02                5.283
  P3Z3.10-MH-03                4.568
  P3Z3.10-MH-04                4.330
  P3Z3.11-MH-01                4.591
  P3Z3.11-MH-02               10.132
  P3Z3.11-MH-03               10.339
  P3Z3.11-MH-04               20.366
  P3Z3.11-MH-05               19.877
  P3Z3.11-MH-06               19.957
  P3Z3.11-MH-07               19.818
  P3Z3.11-MH-08               19.635
  P3Z3.11-MH-09               23.201
  P3Z3.11-MH-10               23.104
  P3Z3.11-MH-11               26.425
  P3Z3.12-MH-01                2.568
  P3Z3.12-MH-02                2.577
  P3Z3.12-MH-03                3.541
  P3Z3.12-MH-04                3.614
  P3Z3.13-MH-01                0.003
  P3Z3.13-MH-02                1.956
  P3Z3.13-MH-03                3.712
  P3Z3.13-MH-04                6.856
  P3Z3.2-MH-01                 0.195
  P3Z3.2-MH-02                 0.787
  P3Z3.2-MH-03                 1.329
  P3Z3.2-MH-04                 3.342
  P3Z3.2-MH-05                 3.317
  P3Z3.2-MH-06                 4.113
  P3Z3.2-MH-07                 4.135
  P3Z3.2-MH-08                 4.141
  P3Z3.2-MH-09                 4.160
  P3Z3.2-MH-10                 5.507
  P3Z3.2-MH-11                 5.460
  P3Z3.2-MH-12                 5.516
  P3Z3.2-MH-13                 5.534
  P3Z3.2-MH-14                 6.659
  P3Z3.2-MH-15                 6.713
  P3Z3.2-MH-16                 6.719
  P3Z3.2-MH-17                15.368
  P3Z3.2-MH-18                16.631
  P3Z3.2-MH-19                19.822
  P3Z3.2-MH-20                44.858
  P3Z3.2-MH-21                49.330
  P3Z3.3-MH-01                 0.000
  P3Z3.3-MH-02                 0.621
  P3Z3.3-MH-03                 0.612
  P3Z3.3-MH-04                 1.482
  P3Z3.3-MH-05                 5.377
  P3Z3.3-MH-06                 5.458
  P3Z3.3-MH-07                 5.369
  P3Z3.3-MH-08                 6.436
  P3Z3.3-MH-09                 6.285
  P3Z3.3-MH-10                 8.312
  P3Z3.3-MH-11                 8.295
  P3Z3.3-MH-12                10.373
  P3Z3.3-MH-13                10.112
  P3Z3.3-MH-14                64.257
  P3Z3.3-MH-15                66.901
  P3Z3.4-MH-01                 0.730
  P3Z3.4-MH-02                 0.719
  P3Z3.4-MH-03                 0.709
  P3Z3.4-MH-04                 0.712
  P3Z3.4-MH-05                 1.625
  P3Z3.4-MH-06                 3.012
  P3Z3.4-MH-07                22.620
  P3Z3.4-MH-08                24.156
  P3Z3.4-MH-09                24.513
  P3Z3.4-MH-10                24.525
  P3Z3.4-MH-11                24.180
  P3Z3.4-MH-12                23.535
  P3Z3.4-MH-13                24.077
  P3Z3.5-MH-01                 0.348
  P3Z3.5-MH-02                18.312
  P3Z3.6-MH-01                 1.349
  P3Z3.7-MH-01                 3.330
  P3Z3.8-MH-01                 3.971
  P3Z3.9-MH-01                 2.500
  P4Z4.1-MH-01                 0.895
  P4Z4.1-MH-02                 0.884
  P4Z4.1-MH-03                 1.881
  P4Z4.1-MH-04                 8.239
  P4Z4.1-MH-05                 9.269
  P4Z4.1-MH-06                 9.296
  P4Z4.1-MH-07                 9.240
  P4Z4.1-MH-08                10.452
  P4Z4.1-MH-09                10.250
  P4Z4.1-MH-10                86.909
  P4Z4.1-MH-11                85.521
  P4Z4.1-MH-12                85.625
  P4Z4.1-MH-13                87.284
  P4Z4.1-MH-14                86.707
  P4Z4.1-MH-15                87.192
  P4Z4.1-MH-16                86.822
  P4Z4.1-MH-17               100.299
  P4Z4.1-MH-18               100.622
  P4Z4.1-MH-19               103.754
  P4Z4.1-MH-20               102.695
  P4Z4.1-MH-21               107.804
  P4Z4.1-MH-22               126.233
  P4Z4.1-MH-23               123.670
  P4Z4.1-MH-24               123.096
  P4Z4.1-MH-25               131.808
  P4Z4.1-MH-26               246.973
  P4Z4.10-MH-01                3.679
  P4Z4.10-MH-02                2.278
  P4Z4.10-MH-03                0.000
  P4Z4.10-MH-04                2.280
  P4Z4.11-MH-01                3.064
  P4Z4.12-MH-01                0.000
  P4Z4.13-MH-01                0.798
  P4Z4.14-MH-01                1.382
  P4Z4.15-MH-01                1.636
  P4Z4.16-MH-01                1.719
  P4Z4.16-MH-02               15.029
  P4Z4.16-MH-03               16.615
  P4Z4.16-MH-04               18.053
  P4Z4.16-MH-05               18.916
  P4Z4.16-MH-06               21.382
  P4Z4.17-MH-01                1.041
  P4Z4.17-MH-02                9.640
  P4Z4.18-MH-01                2.203
  P4Z4.18-MH-02                2.838
  P4Z4.18-MH-03                4.833
  P4Z4.18-MH-04                5.680
  P4Z4.18-MH-05               18.130
  P4Z4.18-MH-06               19.737
  P4Z4.18-MH-07               21.377
  P4Z4.18-MH-08               30.766
  P4Z4.18-MH-09               35.375
  P4Z4.18-MH-10               36.012
  P4Z4.18-MH-11               36.046
  P4Z4.18-MH-12               35.817
  P4Z4.18-MH-13               35.003
  P4Z4.18-MH-14               61.270
  P4Z4.18-MH-15               60.436
  P4Z4.18-MH-16               73.888
  P4Z4.18-MH-17               73.185
  P4Z4.18-MH-18               77.706
  P4Z4.19-MH-01                1.716
  P4Z4.2-MH-01                 1.546
  P4Z4.2-MH-02                 1.797
  P4Z4.2-MH-03                 1.970
  P4Z4.2-MH-04                 6.144
  P4Z4.2-MH-05                11.123
  P4Z4.2-MH-06                13.067
  P4Z4.2-MH-07                14.199
  P4Z4.2-MH-08                16.697
  P4Z4.2-MH-09                17.983
  P4Z4.2-MH-10                20.282
  P4Z4.2-MH-11                22.436
  P4Z4.2-MH-12                25.407
  P4Z4.2-MH-13                29.355
  P4Z4.2-MH-14                29.235
  P4Z4.2-MH-15                30.624
  P4Z4.2-MH-16                33.993
  P4Z4.2-MH-17                34.378
  P4Z4.2-MH-18                41.105
  P4Z4.2-MH-19                43.888
  P4Z4.20-MH-01                0.888
  P4Z4.3-MH-01                 3.379
  P4Z4.3-MH-02                 8.761
  P4Z4.3-MH-03                11.648
  P4Z4.3-MH-04                14.300
  P4Z4.3-MH-05                17.104
  P4Z4.3-MH-06                19.948
  P4Z4.3-MH-07                22.242
  P4Z4.3-MH-08                23.725
  P4Z4.3-MH-09                26.286
  P4Z4.3-MH-10                27.110
  P4Z4.3-MH-11                27.873
  P4Z4.3-MH-12                30.707
  P4Z4.3-MH-13                33.817
  P4Z4.3-MH-14                36.988
  P4Z4.3-MH-15                40.245
  P4Z4.3-MH-16                43.659
  P4Z4.4-MH-01                 4.018
  P4Z4.4-MH-02                 4.785
  P4Z4.4-MH-03                 4.786
  P4Z4.4-MH-04                 4.838
  P4Z4.4-MH-05                 7.792
  P4Z4.4-MH-06                 7.860
  P4Z4.4-MH-07                11.569
  P4Z4.4-MH-08                11.343
  P4Z4.4-MH-09                11.223
  P4Z4.4-MH-10                11.039
  P4Z4.4-MH-11                13.419
  P4Z4.4-MH-12                29.484
  P4Z4.4-MH-13                32.398
  P4Z4.4-MH-14                33.506
  P4Z4.4-MH-15                74.992
  P4Z4.4-MH-16                75.247
  P4Z4.4-MH-17               118.513
  P4Z4.5-MH-01                 0.587
  P4Z4.5-MH-02                 1.452
  P4Z4.5-MH-03                 2.189
  P4Z4.5-MH-04                 4.175
  P4Z4.5-MH-05                 6.156
  P4Z4.5-MH-06                 6.190
  P4Z4.5-MH-07                 7.087
  P4Z4.5-MH-08                 7.092
  P4Z4.5-MH-09                 7.672
  P4Z4.5-MH-10                10.474
  P4Z4.5-MH-11                13.436
  P4Z4.5-MH-12                14.053
  P4Z4.5-MH-13                17.022
  P4Z4.6-MH-01                 0.193
  P4Z4.6-MH-02                 3.066
  P4Z4.6-MH-03                11.075
  P4Z4.6-MH-04                11.782
  P4Z4.6-MH-05                15.893
  P4Z4.7-MH-01                 4.211
  P4Z4.8-MH-01                 1.941
  P4Z4.8-MH-02                 5.410
  P4Z4.9-MH-01                 0.925
  P4Z4.9-MH-02                 2.510
  P4Z4.9-MH-03                 4.682
  P4Z4.9-MH-04                 4.563
  P4Z4.9-MH-05                 4.574
  P4Z4.9-MH-06                 6.296
  P5Z5.1-MH-01                 0.625
  P5Z5.1-MH-02                 1.767
  P5Z5.1-MH-03                 5.573
  P5Z5.1-MH-04                 8.243
  P5Z5.1-MH-05                 9.124
  P5Z5.1-MH-06                 8.928
  P5Z5.1-MH-07                 9.825
  P5Z5.1-MH-08                 9.746
  P5Z5.1-MH-09                15.047
  P5Z5.2-MH-01                 0.002
  P5Z5.2-MH-02                 1.345
  P5Z5.2-MH-03                 2.767
  P5Z5.2-MH-04                 3.919
  P5Z5.2-MH-05                 5.471
  

  Analysis begun on:  Wed Jun 24 08:10:06 2026
  Analysis ended on:  Wed Jun 24 08:10:08 2026
  Total elapsed time: 00:00:02