
  EPA STORM WATER MANAGEMENT MODEL - VERSION 5.2 (Build 5.2.4)
  ------------------------------------------------------------

  
  ****************
  Analysis Options
  ****************
  Flow Units ............... MGD
  Process Models:
    Rainfall/Runoff ........ YES
    RDII ................... NO
    Snowmelt ............... NO
    Groundwater ............ NO
    Flow Routing ........... NO
    Water Quality .......... NO
  Infiltration Method ...... HORTON
  Surcharge Method ......... EXTRAN
  Starting Date ............ 05/10/1999 00:00:00
  Ending Date .............. 05/12/1999 00:00:00
  Antecedent Dry Days ...... 0.0
  Report Time Step ......... 00:01:00
  Wet Time Step ............ 00:01:00
  Dry Time Step ............ 00:01:00
  
  
  **************************        Volume         Depth
  Runoff Quantity Continuity     acre-feet        inches
  **************************     ---------       -------
  Total Precipitation ......      3400.735         2.140
  Evaporation Loss .........         0.000         0.000
  Infiltration Loss ........      2164.502         1.362
  Surface Runoff ...........      1049.530         0.660
  Final Storage ............       186.789         0.118
  Continuity Error (%) .....        -0.003
  
  
  ***************************
  Subcatchment Runoff Summary
  ***************************
  
  ------------------------------------------------------------------------------------------------------------------------------
                            Total      Total      Total      Total     Imperv       Perv      Total       Total     Peak  Runoff
                           Precip      Runon       Evap      Infil     Runoff     Runoff     Runoff      Runoff   Runoff   Coeff
  Subcatchment                 in         in         in         in         in         in         in    10^6 gal      MGD
  ------------------------------------------------------------------------------------------------------------------------------
  BCintj                     2.14       0.00       0.00       0.87       0.48       0.78       1.26        1.03    26.16   0.589
  BCinth                     2.14       0.00       0.00       2.03       0.11       0.00       0.11        0.13     2.10   0.050
  BCinti                     2.14       0.00       0.00       1.71       0.08       0.34       0.43        0.90     7.03   0.200
  BCinte                     2.14       0.00       0.00       2.06       0.07       0.00       0.08        0.22     3.27   0.036
  BCIntd                     2.14       0.00       0.00       2.07       0.07       0.00       0.07        0.05     0.79   0.031
  BCIntc                     2.14       0.00       0.00       2.07       0.07       0.00       0.07        0.03     0.41   0.031
  BCinta                     2.14       0.00       0.00       2.05       0.08       0.00       0.08        0.09     1.48   0.039
  BC30n                      2.14       0.00       0.00       1.70       0.43       0.00       0.43        0.02     0.27   0.202
  BC30a                      2.14       0.00       0.00       2.01       0.13       0.00       0.13        0.00     0.06   0.059
  BC30bcr                    2.14       0.00       0.00       0.37       0.06       1.01       1.07        2.71     5.76   0.501
  BC30d                      2.14       0.00       0.00       1.93       0.21       0.00       0.21        0.22     3.62   0.098
  BC44g                      2.14       0.00       0.00       1.12       0.82       0.18       1.00        0.23     6.37   0.470
  BC44h                      2.14       0.00       0.00       1.11       1.01       0.00       1.01        0.51     8.35   0.473
  BC121a                     2.14       0.00       0.00       1.94       0.20       0.00       0.20        0.07     1.15   0.094
  BC121b                     2.14       0.00       0.00       1.95       0.19       0.00       0.19        0.08     1.35   0.089
  BC21a                      2.14       0.00       0.00       1.27       0.85       0.00       0.85        0.16     2.55   0.399
  BC2a                       2.14       0.00       0.00       1.28       0.84       0.00       0.84        0.13     2.15   0.394
  BC2d                       2.14       0.00       0.00       1.39       0.74       0.00       0.74        0.09     1.53   0.345
  BC2e                       2.14       0.00       0.00       1.35       0.78       0.00       0.78        0.31     5.00   0.364
  BC2f                       2.14       0.00       0.00       1.48       0.65       0.00       0.65        0.55     8.89   0.305
  BC2c-SAN                   2.14       0.00       0.00       2.05       0.09       0.00       0.09        0.02     0.29   0.040
  BC10f                      2.14       0.00       0.00       2.10       0.04       0.00       0.04        0.06     0.29   0.017
  BC10b                      2.14       0.00       0.00       1.69       0.44       0.00       0.44        0.33     5.42   0.207
  104Is                      2.14       0.00       0.00       1.52       0.13       0.00       0.13        0.63     0.56   0.060
  BC10d                      2.14       0.00       0.00       1.02       0.61       0.51       1.11        1.44    20.90   0.520
  BC13a                      2.14       0.00       0.00       0.39       0.91       0.82       1.73        0.63    11.95   0.810
  BC10c                      2.14       0.00       0.00       1.10       0.45       0.58       1.04        0.96    14.31   0.484
  BC10a                      2.14       0.00       0.00       0.47       1.22       0.43       1.65        0.05     0.94   0.770
  BC10aX                     2.14       0.00       0.00       1.44       0.12       0.58       0.70        0.02     0.22   0.327
  BC16a                      2.14       0.00       0.00       1.37       0.76       0.00       0.76        0.27     4.35   0.354
  BC15ABa                    2.14       0.00       0.00       1.31       0.82       0.00       0.82        0.96    15.62   0.384
  Jenningsfc                 2.14       0.00       0.00       0.67       0.86       0.59       1.46        0.53    11.80   0.681
  Jenningsd                  2.14       0.00       0.00       1.73       0.40       0.00       0.40        0.56     9.19   0.186
  Jenningse                  2.14       0.00       0.00       0.69       0.82       0.61       1.43        0.36     8.11   0.670
  Jenningsfb                 2.14       0.00       0.00       0.67       0.86       0.60       1.46        0.35     7.77   0.682
  Jenningsf                  2.14       0.00       0.00       0.68       0.86       0.59       1.45        1.18    26.20   0.678
  Jenningsc                  2.14       0.00       0.00       1.70       0.43       0.00       0.43        0.42     6.83   0.200
  Jenningsb                  2.14       0.00       0.00       1.75       0.38       0.00       0.38        0.17     2.72   0.176
  BC3a                       2.14       0.00       0.00       1.93       0.21       0.00       0.21        0.17     2.71   0.098
  BC063a                     2.14       0.00       0.00       0.58       1.12       0.43       1.54       23.33   429.12   0.722
  BC2c                       2.14       0.00       0.00       1.70       0.43       0.00       0.43        0.09     1.47   0.202
  BC100a                     2.14       0.00       0.00       1.49       0.64       0.00       0.64        0.12     1.90   0.299
  BC114a                     2.14       0.00       0.00       1.71       0.42       0.00       0.42        0.05     0.79   0.197
  BC114aX                    2.14       0.00       0.00       1.65       0.03       0.38       0.41        0.05     1.06   0.192
  BC115a                     2.14       0.00       0.00       1.71       0.42       0.00       0.42        0.07     1.19   0.197
  BC115aX                    2.14       0.00       0.00       1.72       0.03       0.32       0.34        0.06     1.17   0.161
  BC116a                     2.14       0.00       0.00       1.71       0.42       0.00       0.42        0.08     1.26   0.197
  BC116aX                    2.14       0.00       0.00       1.72       0.03       0.31       0.34        0.06     1.18   0.157
  BC44a                      2.14       0.00       0.00       1.58       0.55       0.00       0.55        0.47     7.67   0.256
  BC44ax                     2.14       0.00       0.00       0.93       0.68       0.23       0.91        0.78     3.91   0.424
  BC14a                      2.14       0.00       0.00       1.78       0.35       0.00       0.35        0.08     1.28   0.165
  BC16Ab                     2.14       0.00       0.00       1.75       0.09       0.30       0.39        0.55     4.25   0.182
  BC16AbaX                   2.14       0.00       0.00       1.36       0.09       0.69       0.78        0.14     1.88   0.363
  BC16Abb                    2.14       0.00       0.00       1.48       0.09       0.58       0.66        0.22     2.25   0.309
  BC17a                      2.14       0.00       0.00       0.99       0.25       0.89       1.14        0.25     6.85   0.534
  BC18a                      2.14       0.00       0.00       0.82       0.59       0.72       1.31        0.36     8.87   0.614
  BC7a                       2.14       0.00       0.00       1.44       0.69       0.00       0.69        0.41     6.73   0.323
  BC25c                      2.14       0.00       0.00       1.37       0.75       0.00       0.75        0.16     1.75   0.352
  STM22                      2.14       0.00       0.00       1.19       0.01       0.94       0.95        1.28    34.29   0.442
  BC16Ab-STM                 2.14       0.00       0.00       0.67       0.86       0.59       1.45        2.04    45.23   0.679
  BC19a                      2.14       0.00       0.00       0.67       0.86       0.60       1.46        0.28     6.35   0.682
  Jenningsa                  2.14       0.00       0.00       0.92       0.40       0.82       1.22        0.61    15.97   0.569
  Jenningsx                  2.14       0.00       0.00       1.42       0.02       0.70       0.72        0.36     4.59   0.337
  Jenningsh                  2.14       0.00       0.00       0.80       0.61       0.72       1.33        0.12     2.92   0.622
  BC20Aa                     2.14       0.00       0.00       1.77       0.37       0.00       0.37        0.03     0.46   0.172
  BCintg-STM                 2.14       0.00       0.00       1.50       0.10       0.54       0.64        0.11     1.12   0.300
  BCintm-STM                 2.14       0.00       0.00       1.54       0.59       0.00       0.59        0.20     3.29   0.276
  BCintk                     2.14       0.00       0.00       1.62       0.52       0.00       0.52        0.23     3.77   0.241
  BC125a                     2.14       0.00       0.00       0.81       0.61       0.71       1.32        1.47    35.60   0.617
  BCintl                     2.14       0.00       0.00       0.72       0.78       0.63       1.41        1.46    33.43   0.659
  BC7b                       2.14       0.00       0.00       1.52       0.61       0.00       0.61        0.16     2.66   0.284
  BCIntb-STM                 2.14       0.00       0.00       0.91       1.06       0.15       1.22        0.47    11.31   0.568
  BC25d-STM                  2.14       0.00       0.00       1.26       0.86       0.00       0.86        0.19     3.15   0.404
  BC25b-STM                  2.14       0.00       0.00       1.22       0.91       0.00       0.91        0.42     6.91   0.423
  BC29a                      2.14       0.00       0.00       1.65       0.22       0.26       0.48        0.07     3.19   0.226
  BCInta1                    2.14       0.00       0.00       0.94       1.18       0.00       1.18        0.58     9.39   0.551
  BC25c-STM                  2.14       0.00       0.00       1.37       0.76       0.00       0.76        0.16     2.56   0.354
  BC34a                      2.14       0.00       0.00       1.85       0.28       0.00       0.28        0.16     2.66   0.133
  BC36a                      2.14       0.00       0.00       1.81       0.33       0.00       0.33        0.08     1.38   0.153
  BC38a                      2.14       0.00       0.00       1.19       0.74       0.20       0.94        0.30     8.71   0.438
  STM16                      2.14       0.00       0.00       2.12       0.02       0.00       0.02        0.00     0.03   0.008
  BC39b                      2.14       0.00       0.00       1.28       0.67       0.17       0.85        0.44    11.00   0.396
  BC39a                      2.14       0.00       0.00       1.65       0.48       0.00       0.48        0.03     0.50   0.226
  BC41aaX                    2.14       0.00       0.00       0.96       1.16       0.00       1.16        0.05     0.67   0.540
  BC41aa                     2.14       0.00       0.00       1.33       0.80       0.00       0.80        0.03     0.53   0.374
  BC164st                    2.14       0.00       0.00       1.07       1.05       0.00       1.05        1.52    24.70   0.492
  BC41a-STM                  2.14       0.00       0.00       0.66       0.88       0.58       1.46        1.27    28.13   0.685
  BC30a-STM                  2.14       0.00       0.00       0.86       1.26       0.00       1.26        0.04     0.60   0.591
  BC41h-STM                  2.14       0.00       0.00       0.72       0.78       0.63       1.41        2.23    50.71   0.657
  STM23+18                   2.14       0.00       0.00       0.66       0.86       0.51       1.38        1.46    30.66   0.643
  BC42a                      2.14       0.00       0.00       1.31       0.63       0.18       0.82        0.40    10.52   0.382
  BC46a                      2.14       0.00       0.00       1.54       0.59       0.00       0.59        0.22     3.56   0.276
  BC46ax                     2.14       0.00       0.00       0.70       0.74       0.41       1.15        0.43     4.67   0.536
  BC47a                      2.14       0.00       0.00       1.39       0.74       0.00       0.74        0.22     3.58   0.344
  BC49a                      2.14       0.00       0.00       1.28       0.70       0.16       0.85        0.16     3.62   0.397
  BC49ax                     2.14       0.00       0.00       0.71       0.80       0.29       1.09        0.21     1.46   0.510
  BC50a                      2.14       0.00       0.00       1.41       0.72       0.00       0.72        0.12     2.03   0.335
  BC50aX                     2.14       0.00       0.00       1.73       0.05       0.22       0.26        0.05     0.76   0.124
  BC51a                      2.14       0.00       0.00       1.35       0.78       0.00       0.78        0.26     4.18   0.364
  BC51aX                     2.14       0.00       0.00       1.72       0.05       0.22       0.27        0.09     1.50   0.127
  BC52a                      2.14       0.00       0.00       1.50       0.64       0.00       0.64        0.20     3.18   0.298
  BC53a                      2.14       0.00       0.00       1.26       0.87       0.00       0.87        0.03     0.54   0.408
  BC53aX                     2.14       0.00       0.00       1.51       0.05       0.41       0.47        0.02     0.44   0.218
  BC54a                      2.14       0.00       0.00       1.28       0.85       0.00       0.85        0.03     0.54   0.398
  BC54aX                     2.14       0.00       0.00       1.32       0.05       0.61       0.66        0.03     0.93   0.310
  BC59a                      2.14       0.00       0.00       1.46       0.67       0.00       0.67        0.17     2.78   0.315
  BC61a                      2.14       0.00       0.00       1.33       0.80       0.00       0.80        0.23     3.76   0.374
  BC62a                      2.14       0.00       0.00       1.50       0.63       0.00       0.63        0.20     3.26   0.294
  BC64a                      2.14       0.00       0.00       1.65       0.48       0.00       0.48        0.19     3.07   0.225
  BC56r                      2.14       0.00       0.00       1.54       0.59       0.00       0.59        0.14     2.35   0.276
  BC56rX                     2.14       0.00       0.00       1.60       0.53       0.00       0.53        0.13     2.10   0.246
  BC66a                      2.14       0.00       0.00       1.33       0.80       0.00       0.80        0.28     4.58   0.374
  BC69a                      2.14       0.00       0.00       1.36       0.21       0.56       0.78        0.10     3.36   0.363
  BC84a                      2.14       0.00       0.00       1.33       0.80       0.00       0.80        0.42     6.88   0.374
  BC84aX                     2.14       0.00       0.00       1.70       0.05       0.24       0.29        0.15     2.65   0.136
  BC58b                      2.14       0.00       0.00       0.79       0.70       0.65       1.34        1.97    43.89   0.627
  BC150x                     2.14       0.00       0.00       1.50       0.09       0.00       0.09        0.87     0.72   0.042
  BC58c                      2.14       0.00       0.00       1.61       0.53       0.00       0.53        0.87    14.16   0.246
  BC90a                      2.14       0.00       0.00       0.35       1.04       0.74       1.77        0.09     1.63   0.829
  BC89a                      2.14       0.00       0.00       0.36       1.01       0.76       1.77        0.03     0.57   0.826
  STM19                      2.14       0.00       0.00       0.56       0.46       1.11       1.57        0.13     2.62   0.733
  BC09b                      2.14       0.00       0.00       0.49       0.73       0.90       1.64        2.53    48.73   0.765
  BC09a                      2.14       0.00       0.00       0.22       1.44       0.46       1.90        0.08     1.43   0.888
  STM20                      2.14       0.00       0.00       0.64       0.68       0.81       1.49        1.87    29.06   0.697
  BC16Aba                    2.14       0.00       0.00       0.66       0.86       0.60       1.46        0.26     5.88   0.684
  BC41o-STM                  2.14       0.00       0.00       0.90       0.57       0.66       1.23        0.85    17.26   0.576
  BC91a                      2.14       0.00       0.00       0.34       1.06       0.72       1.78        0.10     1.93   0.833
  BC92a                      2.14       0.00       0.00       0.63       0.93       0.57       1.50        0.11     2.41   0.699
  BC96a                      2.14       0.00       0.00       0.61       0.96       0.55       1.51        0.06     1.37   0.706
  BC93a                      2.14       0.00       0.00       1.54       0.59       0.00       0.59        0.10     1.68   0.276
  BCInta2                    2.14       0.00       0.00       1.46       0.67       0.00       0.67        0.40     6.56   0.315
  BC94a                      2.14       0.00       0.00       0.70       0.81       0.62       1.43        0.33     7.47   0.669
  BC7i                       2.14       0.00       0.00       0.80       0.62       0.71       1.33        0.57    13.73   0.622
  BC7c                       2.14       0.00       0.00       0.78       0.67       0.68       1.35        1.02    24.02   0.633
  BC95a                      2.14       0.00       0.00       0.72       0.76       0.65       1.40        0.39     9.01   0.656
  BC7g                       2.14       0.00       0.00       0.83       0.56       0.74       1.30        0.58    14.28   0.607
  BC7d                       2.14       0.00       0.00       1.44       0.69       0.00       0.69        0.14     2.20   0.323
  BC7e                       2.14       0.00       0.00       0.77       0.69       0.66       1.35        0.75    17.40   0.633
  BC7e-s                     2.14       0.00       0.00       0.73       0.86       0.53       1.39        0.38     7.22   0.651
  BC7f                       2.14       0.00       0.00       1.66       0.47       0.00       0.47        0.11     1.80   0.221
  BC98a                      2.14       0.00       0.00       0.59       1.01       0.53       1.54        0.06     1.27   0.719
  BC20a                      2.14       0.00       0.00       0.85       0.52       0.76       1.28        0.30     7.44   0.599
  BC99a                      2.14       0.00       0.00       1.08       0.21       0.85       1.06        1.48    36.78   0.496
  BC2b                       2.14       0.00       0.00       0.95       1.17       0.00       1.17        0.44     7.23   0.546
  BC4a                       2.14       0.00       0.00       1.94       0.19       0.00       0.19        0.19     3.10   0.091
  BC4c                       2.14       0.00       0.00       1.95       0.18       0.00       0.18        0.21     3.46   0.086
  STM10x                     2.14       0.00       0.00       1.82       0.30       0.00       0.30        0.31     1.48   0.139
  STM10                      2.14       0.00       0.00       0.99       0.63       0.50       1.14        1.20    17.65   0.531
  BC1a                       2.14       0.00       0.00       1.93       0.21       0.00       0.21        0.17     2.70   0.098
  BC1b                       2.14       0.00       0.00       1.93       0.21       0.00       0.21        0.16     2.67   0.096
  BCIntb                     2.14       0.00       0.00       2.03       0.08       0.03       0.11        0.04     0.72   0.051
  BC25a                      2.14       0.00       0.00       0.54       1.09       0.49       1.58        0.50    10.42   0.737
  BC25b                      2.14       0.00       0.00       2.05       0.09       0.00       0.09        0.04     0.69   0.042
  BC25d                      2.14       0.00       0.00       2.05       0.09       0.00       0.09        0.02     0.31   0.040
  BC25c-SAN                  2.14       0.00       0.00       2.06       0.08       0.00       0.08        0.02     0.26   0.035
  BC7aa                      2.14       0.00       0.00       1.26       0.83       0.00       0.83        0.22     1.16   0.388
  BCintk-SAN                 2.14       0.00       0.00       2.04       0.10       0.00       0.10        0.05     0.75   0.048
  BCintg                     2.14       0.00       0.00       0.69       0.83       0.61       1.44        0.25     5.62   0.673
  BCintm                     2.14       0.00       0.00       2.02       0.12       0.00       0.12        0.04     0.66   0.055
  BC18Aa                     2.14       0.00       0.00       0.65       0.88       0.59       1.47        0.19     4.15   0.688
  BC18-s                     2.14       0.00       0.00       0.84       0.88       0.40       1.28        0.16     1.50   0.598
  BC28a                      2.14       0.00       0.00       0.91       0.45       0.77       1.23        0.41    10.18   0.572
  BC31a                      2.14       0.00       0.00       1.71       0.42       0.00       0.42        0.02     0.29   0.197
  BC33a                      2.14       0.00       0.00       1.73       0.40       0.00       0.40        0.12     1.92   0.187
  BC32a                      2.14       0.00       0.00       1.72       0.41       0.00       0.41        0.36     5.85   0.192
  BC35a                      2.14       0.00       0.00       1.79       0.35       0.00       0.35        0.42     6.89   0.162
  BC35b                      2.14       0.00       0.00       1.77       0.37       0.00       0.37        0.32     5.26   0.172
  BC30m                      2.14       0.00       0.00       1.77       0.37       0.00       0.37        0.06     0.98   0.172
  BC30o                      2.14       0.00       0.00       1.74       0.08       0.31       0.39        0.03     1.92   0.185
  BC127x                     2.14       0.00       0.00       1.75       0.08       0.31       0.39        0.15     9.77   0.183
  BC37b                      2.14       0.00       0.00       1.21       0.73       0.18       0.92        0.02     0.45   0.429
  BC37f                      2.14       0.00       0.00       1.24       0.88       0.00       0.88        0.24     3.96   0.414
  BC37x                      2.14       0.00       0.00       1.15       0.74       0.20       0.94        4.88    21.35   0.439
  BC37d                      2.14       0.00       0.00       0.60       0.99       0.54       1.52        1.59    34.09   0.711
  BC37e                      2.14       0.00       0.00       0.66       0.88       0.58       1.47        2.16    47.67   0.686
  BC37a                      2.14       0.00       0.00       1.02       0.94       0.17       1.11        1.21    31.25   0.517
  BC37c                      2.14       0.00       0.00       0.64       0.91       0.57       1.48        1.91    41.95   0.692
  BC30p                      2.14       0.00       0.00       1.69       0.15       0.30       0.45        0.05     2.72   0.210
  BC39x                      2.14       0.00       0.00       2.03       0.10       0.00       0.10        0.28     1.05   0.046
  BC40b                      2.14       0.00       0.00       1.28       0.84       0.00       0.84        0.93    15.17   0.394
  BC40a                      2.14       0.00       0.00       1.35       0.78       0.00       0.78        0.84    13.67   0.364
  BC41a                      2.14       0.00       0.00       0.91       0.94       0.05       0.99        0.86     1.91   0.462
  BC41h                      2.14       0.00       0.00       0.92       0.90       0.04       0.94        1.49     3.00   0.440
  BC41f                      2.14       0.00       0.00       1.20       0.02       0.92       0.94        1.18    30.28   0.441
  BC41j                      2.14       0.00       0.00       1.14       0.02       0.98       1.00        0.75    22.72   0.467
  BC41k                      2.14       0.00       0.00       1.66       0.44       0.01       0.45        0.51     2.51   0.209
  BC41p                      2.14       0.00       0.00       1.24       0.02       0.88       0.90        2.94    64.63   0.421
  BC41q                      2.14       0.00       0.00       1.14       0.02       0.97       1.00        1.03    30.76   0.465
  BC41r                      2.14       0.00       0.00       1.18       0.02       0.94       0.96        1.19    32.79   0.451
  BC41t                      2.14       0.00       0.00       1.34       0.57       0.23       0.80        0.41    11.65   0.372
  BC41ta                     2.14       0.00       0.00       1.33       0.57       0.23       0.80        0.17     5.65   0.375
  BC41w                      2.14       0.00       0.00       1.42       0.57       0.14       0.71        0.87    13.66   0.330
  BC41z                      2.14       0.00       0.00       1.33       0.57       0.23       0.80        0.18     5.49   0.373
  BC41e2                     2.14       0.00       0.00       1.89       0.17       0.07       0.24        0.40     5.43   0.113
  121slw                     2.14       0.00       0.00       1.88       0.17       0.09       0.25        0.42     2.08   0.118
  BC41g                      2.14       0.00       0.00       1.44       0.57       0.12       0.69        0.76    11.63   0.321
  BC41o                      2.14       0.00       0.00       2.00       0.06       0.08       0.14        0.10     0.80   0.066
  BC41i                      2.14       0.00       0.00       0.91       0.97       0.05       1.02        1.16     2.79   0.478
  BC41b                      2.14       0.00       0.00       1.80       0.29       0.00       0.29        0.70     1.68   0.134
  BC41d                      2.14       0.00       0.00       1.63       0.33       0.16       0.50        0.17     1.52   0.233
  BC41l                      2.14       0.00       0.00       1.72       0.33       0.08       0.40        0.23     1.42   0.189
  BC41m                      2.14       0.00       0.00       1.92       0.16       0.04       0.21        0.16     1.03   0.098
  BC41n                      2.14       0.00       0.00       1.96       0.15       0.01       0.16        0.23     0.62   0.075
  BC41v                      2.14       0.00       0.00       1.50       0.57       0.07       0.63        1.16    17.03   0.296
  BC41u                      2.14       0.00       0.00       1.47       0.57       0.09       0.66        1.10    16.55   0.307
  BC41s                      2.14       0.00       0.00       1.46       0.57       0.10       0.67        0.51     7.72   0.312
  132islw                    2.14       0.00       0.00       1.54       0.32       0.02       0.35        2.18     3.09   0.163
  BC41x                      2.14       0.00       0.00       1.48       0.57       0.09       0.65        0.47     7.08   0.306
  120slw                     2.14       0.00       0.00       1.49       0.48       0.07       0.56        1.08     2.60   0.260
  BC30g                      2.14       0.00       0.00       1.99       0.14       0.00       0.14        1.28     7.03   0.066
  BC30h                      2.14       0.00       0.00       1.75       0.13       0.00       0.13        0.21     2.20   0.062
  BC30hX                     2.14       0.00       0.00       0.89       0.23       0.01       0.24        0.38     0.37   0.111
  BC30l                      2.14       0.00       0.00       2.12       0.02       0.00       0.02        0.02     0.25   0.010
  BC43b                      2.14       0.00       0.00       1.93       0.21       0.00       0.21        0.19     3.06   0.098
  BC43a                      2.14       0.00       0.00       1.33       0.63       0.17       0.80        0.53    13.07   0.376
  BC43c                      2.14       0.00       0.00       1.34       0.63       0.15       0.79        1.16    25.78   0.368
  BC30f                      2.14       0.00       0.00       2.11       0.03       0.00       0.03        0.28     2.11   0.015
  BC88a                      2.14       0.00       0.00       1.71       0.42       0.00       0.42        0.40     6.46   0.197
  BC44f                      2.14       0.00       0.00       1.71       0.42       0.00       0.42        0.31     5.09   0.197
  BC44fx                     2.14       0.00       0.00       1.09       0.59       0.20       0.79        0.58     2.66   0.367
  BC44c                      2.14       0.00       0.00       1.58       0.55       0.00       0.55        0.77    12.62   0.256
  BC44cx                     2.14       0.00       0.00       0.96       0.67       0.20       0.87        1.23     5.36   0.406
  BC44b                      2.14       0.00       0.00       1.46       0.67       0.00       0.67        0.46     7.55   0.315
  BC57a                      2.14       0.00       0.00       1.65       0.48       0.00       0.48        0.58     9.47   0.226
  BC57ax                     2.14       0.00       0.00       1.16       0.48       0.06       0.54        0.65     1.26   0.252
  BC63a                      2.14       0.00       0.00       1.63       0.50       0.00       0.50        0.32     5.25   0.235
  BC44d                      2.14       0.00       0.00       1.46       0.67       0.00       0.67        0.55     8.94   0.315
  BC44dx                     2.14       0.00       0.00       0.80       0.77       0.23       1.00        0.81     4.06   0.465
  BC44e                      2.14       0.00       0.00       1.48       0.65       0.00       0.65        0.58     9.51   0.305
  BC44ex                     2.14       0.00       0.00       0.84       0.75       0.21       0.96        0.86     3.98   0.449
  BC58e                      2.14       0.00       0.00       1.54       0.59       0.00       0.59        0.59     9.65   0.276
  BC58d                      2.14       0.00       0.00       1.28       0.84       0.00       0.84        0.68    11.00   0.394
  BC58g                      2.14       0.00       0.00       1.33       0.80       0.00       0.80        1.46    23.86   0.374
  BC58h                      2.14       0.00       0.00       1.50       0.63       0.00       0.63        0.50     8.07   0.295
  BC58f                      2.14       0.00       0.00       1.60       0.53       0.00       0.53        0.19     3.11   0.246
  BC60ax                     2.14       0.00       0.00       1.25       0.67       0.12       0.79        1.06     3.21   0.368
  BC60a                      2.14       0.00       0.00       1.37       0.76       0.00       0.76        0.61     9.89   0.354
  BC152X                     2.14       0.00       0.00       1.01       0.98       0.06       1.04        4.56    19.84   0.485
  BC56b                      2.14       0.00       0.00       1.54       0.59       0.00       0.59        0.73    11.89   0.276
  BC56g                      2.14       0.00       0.00       1.65       0.48       0.00       0.48        0.76    12.37   0.226
  BC56efgt                   2.14       0.00       0.00       1.02       0.97       0.05       1.01        5.38    20.41   0.474
  BC56f                      2.14       0.00       0.00       1.65       0.48       0.00       0.48        0.76    12.34   0.226
  BC56t                      2.14       0.00       0.00       1.82       0.32       0.00       0.32        0.18     2.96   0.148
  BC56m                      2.14       0.00       0.00       1.75       0.38       0.00       0.38        0.45     7.32   0.177
  BC56c                      2.14       0.00       0.00       1.61       0.53       0.00       0.53        0.77    12.50   0.246
  BC56a                      2.14       0.00       0.00       1.65       0.48       0.00       0.48        0.22     3.60   0.226
  BC56d                      2.14       0.00       0.00       1.61       0.53       0.00       0.53        0.65    10.66   0.246
  BC66X                      2.14       0.00       0.00       1.52       0.42       0.19       0.61        1.50    20.28   0.284
  BC66Ab                     2.14       0.00       0.00       1.93       0.21       0.00       0.21        0.25     4.15   0.098
  BC66Aa                     2.14       0.00       0.00       1.82       0.32       0.00       0.32        0.40     6.52   0.148
  BC56e                      2.14       0.00       0.00       1.65       0.48       0.00       0.48        0.77    12.62   0.226
  BC56h                      2.14       0.00       0.00       1.58       0.55       0.00       0.55        1.22    19.91   0.256
  BC56hijk                   2.14       0.00       0.00       0.99       1.01       0.08       1.08        3.10    18.24   0.507
  BC56j                      2.14       0.00       0.00       1.58       0.55       0.00       0.55        0.12     1.88   0.256
  BC56ik                     2.14       0.00       0.00       1.93       0.21       0.00       0.21        0.09     1.44   0.098
  BC8k                       2.14       0.00       0.00       0.84       0.63       0.66       1.29        1.27    27.50   0.604
  BC73a                      2.14       0.00       0.00       1.05       1.07       0.00       1.07        0.07     1.10   0.502
  BC73c                      2.14       0.00       0.00       1.50       0.63       0.00       0.63        0.33     5.44   0.295
  BC73x                      2.14       0.00       0.00       1.16       0.83       0.13       0.96        2.31    20.09   0.447
  BC73b                      2.14       0.00       0.00       1.48       0.65       0.00       0.65        0.48     7.78   0.305
  BC8a                       2.14       0.00       0.00       1.60       0.53       0.00       0.53        0.14     2.29   0.247
  BC8c                       2.14       0.00       0.00       1.61       0.53       0.00       0.53        0.75    12.15   0.247
  BC8f                       2.14       0.00       0.00       1.82       0.32       0.00       0.32        0.29     4.74   0.148
  BC8e                       2.14       0.00       0.00       1.05       0.42       0.66       1.08        1.50    25.82   0.506
  BC155x                     2.14       0.00       0.00       1.20       0.82       0.09       0.91        3.59    23.71   0.425
  BC155AX                    2.14       0.00       0.00       1.49       0.38       0.00       0.39        2.57     3.67   0.181
  BC56q                      2.14       0.00       0.00       2.08       0.06       0.00       0.06        0.07     1.22   0.030
  BC8b                       2.14       0.00       0.00       1.60       0.53       0.00       0.53        0.38     6.09   0.247
  BC8g                       2.14       0.00       0.00       1.41       0.72       0.00       0.72        0.61     9.94   0.335
  BC8j                       2.14       0.00       0.00       1.05       1.07       0.00       1.07        0.20     3.30   0.502
  BC8h                       2.14       0.00       0.00       1.50       0.63       0.00       0.63        0.36     5.87   0.295
  BC8i                       2.14       0.00       0.00       1.82       0.32       0.00       0.32        0.43     6.97   0.148
  BC8dl                      2.14       0.00       0.00       1.60       0.53       0.00       0.53        1.02    16.50   0.247
  BC70a                      2.14       0.00       0.00       1.08       0.68       0.37       1.05        1.46    34.25   0.490
  BC157                      2.14       0.00       0.00       1.93       0.21       0.00       0.21        0.68     9.65   0.098
  BC70c                      2.14       0.00       0.00       1.08       0.68       0.38       1.05        1.24    29.27   0.492
  BC70b                      2.14       0.00       0.00       0.82       1.00       0.31       1.31        0.90    19.63   0.611
  BC71ax                     2.14       0.00       0.00       1.45       0.50       0.07       0.56        0.49     1.10   0.263
  BC71a                      2.14       0.00       0.00       0.87       0.61       0.65       1.26        1.10    22.55   0.589
  BC72ax                     2.14       0.00       0.00       1.26       0.61       0.07       0.67        0.58     1.14   0.315
  BC72a                      2.14       0.00       0.00       0.74       0.80       0.58       1.38        1.19    24.63   0.647
  BC72cx                     2.14       0.00       0.00       1.49       0.49       0.12       0.60        0.73     2.56   0.283
  BC72c                      2.14       0.00       0.00       0.99       0.53       0.61       1.14        1.38    23.39   0.533
  BC72bx                     2.14       0.00       0.00       1.16       0.74       0.14       0.89        0.58     1.86   0.415
  BC72b                      2.14       0.00       0.00       0.72       0.82       0.58       1.41        0.91    19.39   0.657
  BC73d                      2.14       0.00       0.00       1.50       0.63       0.00       0.63        0.69    11.22   0.295
  BC56mlu                    2.14       0.00       0.00       1.01       0.99       0.06       1.05        4.06    19.40   0.492
  BC56l                      2.14       0.00       0.00       1.75       0.38       0.00       0.38        0.60     9.72   0.177
  BC56u                      2.14       0.00       0.00       1.82       0.32       0.00       0.32        0.35     5.66   0.148
  BC56onp                    2.14       0.00       0.00       1.03       0.96       0.04       1.00        5.93    20.71   0.467
  BC56n                      2.14       0.00       0.00       1.75       0.38       0.00       0.38        0.56     9.12   0.177
  BC56o                      2.14       0.00       0.00       1.22       0.91       0.00       0.91        2.16    34.97   0.423
  BC56p                      2.14       0.00       0.00       0.53       1.16       0.43       1.59        3.30    64.77   0.743
  BC45a                      2.14       0.00       0.00       1.54       0.59       0.00       0.59        0.82    13.41   0.276
  BC45aX                     2.14       0.00       0.00       1.51       0.09       0.26       0.35        0.49     2.67   0.165
  BC45c                      2.14       0.00       0.00       1.58       0.55       0.00       0.55        0.66    10.71   0.256
  BC45cX                     2.14       0.00       0.00       1.21       0.10       0.54       0.64        0.77     5.73   0.299
  BC45b                      2.14       0.00       0.00       1.58       0.55       0.00       0.55        0.63    10.24   0.256
  BC45bX                     2.14       0.00       0.00       1.47       0.10       0.28       0.38        0.44     2.42   0.177
  BC104a                     2.14       0.00       0.00       1.93       0.21       0.00       0.21        0.24     3.85   0.098
  BC104aX                    2.14       0.00       0.00       1.95       0.02       0.13       0.15        0.16     2.34   0.069
  BC103a                     2.14       0.00       0.00       1.31       0.82       0.00       0.82        0.12     2.02   0.384
  BC103aX                    2.14       0.00       0.00       1.56       0.05       0.36       0.42        0.06     1.37   0.194
  BC83a                      2.14       0.00       0.00       1.24       0.88       0.00       0.88        0.46     7.52   0.413
  BC83aX                     2.14       0.00       0.00       1.68       0.05       0.24       0.30        0.16     2.69   0.139
  BC102a                     2.14       0.00       0.00       1.18       0.95       0.00       0.95        0.15     2.48   0.443
  BC102aX                    2.14       0.00       0.00       1.47       0.06       0.43       0.49        0.08     2.02   0.229
  BC101a                     2.14       0.00       0.00       1.41       0.72       0.00       0.72        0.36     5.84   0.335
  BC101aX                    2.14       0.00       0.00       1.63       0.05       0.32       0.37        0.18     3.62   0.171
  BC54x                      2.14       0.00       0.00       1.48       0.53       0.02       0.55        4.62    11.45   0.256
  BC53Aa                     2.14       0.00       0.00       0.62       0.92       0.60       1.51        1.38    29.29   0.708
  BC53Ab                     2.14       0.00       0.00       1.35       0.79       0.00       0.79        0.78    12.60   0.368
  BC53Afx                    2.14       0.00       0.00       1.15       0.20       0.18       0.38        0.37     2.28   0.175
  BC53Af                     2.14       0.00       0.00       0.72       0.80       0.61       1.41        1.39    30.81   0.657
  BC53Aex                    2.14       0.00       0.00       1.20       0.18       0.22       0.40        0.23     1.61   0.185
  BC53Ae                     2.14       0.00       0.00       1.41       0.72       0.00       0.72        0.42     6.79   0.335
  BC55a                      2.14       0.00       0.00       1.26       0.87       0.00       0.87        1.37    22.11   0.408
  BC55b                      2.14       0.00       0.00       1.26       0.87       0.00       0.87        0.56     9.10   0.408
  BC54Ac                     2.14       0.00       0.00       1.31       0.83       0.00       0.83        0.42     6.82   0.388
  BC54Aa                     2.14       0.00       0.00       1.56       0.57       0.00       0.57        0.53     8.48   0.269
  BC54Ab                     2.14       0.00       0.00       1.41       0.72       0.00       0.72        0.60     9.64   0.338
  BC53Ac                     2.14       0.00       0.00       0.63       0.94       0.57       1.51        2.11    42.65   0.704
  BC53Ad                     2.14       0.00       0.00       1.28       0.85       0.00       0.85        0.57     9.25   0.398
  STM01+15                   2.14       0.00       0.00       1.21       0.10       0.83       0.92        0.80    16.55   0.432
  BIGec                      2.14       0.00       0.00       0.86       1.18       0.00       1.18        5.69    25.73   0.553
  BIGecx                     2.14       0.00       0.00       0.86       0.46       0.00       0.46        1.25     1.75   0.214
  BIGea                      2.14       0.00       0.00       1.39       0.73       0.00       0.73       32.44   398.83   0.339
  BIGeb                      2.14       0.00       0.00       1.18       0.94       0.00       0.94       18.94   287.09   0.438
  BIGeax                     2.14       0.00       0.00       1.39       0.31       0.00       0.31        7.08    11.54   0.144
  BIGebx                     2.14       0.00       0.00       1.18       0.39       0.00       0.39        3.64     5.81   0.182
  BC58a                      2.14       0.00       0.00       1.82       0.31       0.00       0.31        0.52     8.58   0.147
  BC65c                      2.14       0.00       0.00       1.56       0.57       0.00       0.57        0.51     8.26   0.266
  BC65X                      2.14       0.00       0.00       1.03       0.95       0.04       0.99        6.15    20.82   0.464
  BC65ag                     2.14       0.00       0.00       1.61       0.53       0.00       0.53        0.77    12.62   0.246
  BC65b                      2.14       0.00       0.00       1.58       0.55       0.00       0.55        0.42     6.76   0.256
  BC65e                      2.14       0.00       0.00       1.54       0.59       0.00       0.59        0.56     9.08   0.276
  BC65d                      2.14       0.00       0.00       1.65       0.48       0.00       0.48        0.69    11.20   0.226
  BC65f                      2.14       0.00       0.00       1.82       0.32       0.00       0.32        0.25     4.13   0.148
  BIGwb                      2.14       0.00       0.00       1.44       0.21       0.16       0.37        6.12    20.00   0.174
  BIGwbx                     2.14       0.00       0.00       1.59       0.09       0.01       0.10        1.65     2.32   0.047
  BIGwa                      2.14       0.00       0.00       1.27       0.84       0.00       0.84       18.95   227.18   0.393
  I71ax                      2.14       0.00       0.00       1.15       0.79       0.13       0.92        0.66     2.58   0.430
  I71a                       2.14       0.00       0.00       1.93       0.21       0.00       0.21        0.15     2.45   0.098
  STM02                      2.14       0.00       0.00       0.67       0.86       0.51       1.37        2.22    45.31   0.639
  Jenningsk                  2.14       0.00       0.00       2.07       0.07       0.00       0.07        0.03     0.45   0.033
  Jenningsix                 2.14       0.00       0.00       2.14       0.00       0.00       0.00        0.00     0.04   0.002
  Jenningsl                  2.14       0.00       0.00       2.10       0.04       0.00       0.04        0.08     1.26   0.018
  Jenningsi                  2.14       0.00       0.00       1.08       0.79       0.26       1.05        0.64    15.62   0.492
  BC4d                       2.14       0.00       0.00       1.44       0.03       0.67       0.70        0.49    18.59   0.326
  BC4f                       2.14       0.00       0.00       1.19       0.45       0.50       0.94        0.36    10.40   0.441
  

  Analysis begun on:  Wed Jun 24 08:10:38 2026
  Analysis ended on:  Wed Jun 24 08:10:39 2026
  Total elapsed time: 00:00:01