
  EPA STORM WATER MANAGEMENT MODEL - VERSION 5.2 (Build 5.2.4)
  ------------------------------------------------------------

  WARNING 04: minimum elevation drop used for Conduit G152151-G152148
  WARNING 08: elevation drop exceeds length for Conduit G152203-G152202
  WARNING 04: minimum elevation drop used for Conduit G152217-G152216
  WARNING 04: minimum elevation drop used for Conduit G152487-G152486
  WARNING 08: elevation drop exceeds length for Conduit G157309-G152357
  WARNING 04: minimum elevation drop used for Conduit G1573092-H153452
  WARNING 04: minimum elevation drop used for Conduit G1573093-G1573094
  WARNING 04: minimum elevation drop used for Conduit G1573094-H16969
  WARNING 04: minimum elevation drop used for Conduit G1573145-G1573146
  WARNING 04: minimum elevation drop used for Conduit H16969-OUTFALL1
  WARNING 02: maximum depth increased for Node G152148
  WARNING 02: maximum depth increased for Node G152357
  WARNING 02: maximum depth increased for Node G1573168
  WARNING 02: maximum depth increased for Node H142450
  WARNING 02: maximum depth increased for Node H152457
  WARNING 02: maximum depth increased for Node H153464
  WARNING 02: maximum depth increased for Node H153465
  
  ****************
  Analysis Options
  ****************
  Flow Units ............... CFS
  Process Models:
    Rainfall/Runoff ........ YES
    RDII ................... NO
    Snowmelt ............... NO
    Groundwater ............ NO
    Flow Routing ........... YES
    Ponding Allowed ........ YES
    Water Quality .......... YES
  Infiltration Method ...... HORTON
  Flow Routing Method ...... DYNWAVE
  Surcharge Method ......... EXTRAN
  Starting Date ............ 01/01/2002 00:00:00
  Ending Date .............. 01/01/2002 12:00:00
  Antecedent Dry Days ...... 5.0
  Report Time Step ......... 00:05:00
  Wet Time Step ............ 00:05:00
  Dry Time Step ............ 01:00:00
  Routing Time Step ........ 30.00 sec
  Variable Time Step ....... YES
  Maximum Trials ........... 8
  Number of Threads ........ 1
  Head Tolerance ........... 0.001000 ft
  
  
  **************************        Volume         Depth
  Runoff Quantity Continuity     acre-feet        inches
  **************************     ---------       -------
  Total Precipitation ......       138.328         6.000
  Evaporation Loss .........         0.000         0.000
  Infiltration Loss ........        40.393         1.752
  Surface Runoff ...........        95.163         4.128
  Final Storage ............         2.862         0.124
  Continuity Error (%) .....        -0.065
  
  
  **************************    POLLUTNT-1
  Runoff Quality Continuity            lbs
  **************************    ----------
  Initial Buildup ..........         0.000
  Surface Buildup ..........         0.000
  Wet Deposition ...........         0.000
  Sweeping Removal .........         0.000
  Infiltration Loss ........         0.000
  BMP Removal ..............         0.000
  Surface Runoff ...........         0.000
  Remaining Buildup ........         0.000
  Continuity Error (%) .....         0.000
  
  
  **************************        Volume        Volume
  Flow Routing Continuity        acre-feet      10^6 gal
  **************************     ---------     ---------
  Dry Weather Inflow .......         0.000         0.000
  Wet Weather Inflow .......        95.141        31.003
  Groundwater Inflow .......         0.000         0.000
  RDII Inflow ..............         0.000         0.000
  External Inflow ..........         0.000         0.000
  External Outflow .........         0.557         0.181
  Flooding Loss ............        86.586        28.215
  Evaporation Loss .........         0.000         0.000
  Exfiltration Loss ........         0.000         0.000
  Initial Stored Volume ....         0.000         0.000
  Final Stored Volume ......         2.965         0.966
  Continuity Error (%) .....         5.290
  
  
  **************************    POLLUTNT-1
  Quality Routing Continuity           lbs
  **************************    ----------
  Dry Weather Inflow .......         0.000
  Wet Weather Inflow .......         0.000
  Groundwater Inflow .......         0.000
  RDII Inflow ..............         0.000
  External Inflow ..........         0.000
  External Outflow .........         0.000
  Flooding Loss ............         0.000
  Exfiltration Loss ........         0.000
  Mass Reacted .............         0.000
  Initial Stored Mass ......         0.000
  Final Stored Mass ........         0.000
  Continuity Error (%) .....         0.000
  
  
  *************************
  Highest Continuity Errors
  *************************
  Node G152203 (100.00%)
  Node G1573119 (88.37%)
  Node G152154 (85.64%)
  Node H153529 (-64.54%)
  Node G152555 (53.26%)
  
  
  ***************************
  Time-Step Critical Elements
  ***************************
  Link H153561-H153563 (16.15%)
  Link G1573132-G152146 (12.62%)
  Link G152220-G152219 (6.30%)
  Link G152218-G152217 (6.11%)
  Link H152380-H152379 (4.51%)
  
  
  ********************************
  Highest Flow Instability Indexes
  ********************************
  Link G1573119-G1573120 (82)
  Link G152340-G1573163 (64)
  Link H153546-H153545 (62)
  Link G152542-G152539 (56)
  Link G152217-G152216 (54)
  
  
  *********************************
  Most Frequent Nonconverging Nodes
  *********************************
  Node OUTFALL-1 (58.47%)
  Node G152187 (9.81%)
  Node H153447 (6.30%)
  Node H152033 (5.36%)
  Node H153530 (4.73%)
  
  
  *************************
  Routing Time Step Summary
  *************************
  Minimum Time Step           :     0.17 sec
  Average Time Step           :     2.54 sec
  Maximum Time Step           :    30.00 sec
  % of Time in Steady State   :     0.00
  Average Iterations per Step :     7.37
  % of Steps Not Converging   :    58.47
  Time Step Frequencies       :
     30.000 -  3.817 sec      :    15.03 %
      3.817 -  0.486 sec      :    81.66 %
      0.486 -  0.062 sec      :     3.31 %
      0.062 -  0.008 sec      :     0.00 %
      0.008 -  0.001 sec      :     0.00 %
  
  
  ***************************
  Subcatchment Runoff Summary
  ***************************
  
  ------------------------------------------------------------------------------------------------------------------------------
                            Total      Total      Total      Total     Imperv       Perv      Total       Total     Peak  Runoff
                           Precip      Runon       Evap      Infil     Runoff     Runoff     Runoff      Runoff   Runoff   Coeff
  Subcatchment                 in         in         in         in         in         in         in    10^6 gal      CFS
  ------------------------------------------------------------------------------------------------------------------------------
  SUB-10                     6.00       0.00       0.00       2.77       2.78       0.16       2.78        0.73     6.10   0.463
  SUB-100                    6.00       0.00       0.00       0.18       5.73       0.12       5.73        0.02     0.19   0.956
  SUB-1000                   6.00       0.00       0.00       3.21       2.77       1.29       2.77        0.02     0.30   0.461
  SUB-1002                   6.00       0.00       0.00       3.16       2.82       1.34       2.82        0.02     0.26   0.470
  SUB-1004                   6.00       0.00       0.00       3.16       2.82       1.34       2.82        0.02     0.26   0.470
  SUB-1006                   6.00       0.00       0.00       3.16       2.82       1.35       2.82        0.02     0.25   0.471
  SUB-1008                   6.00       0.00       0.00       0.58       5.33       0.32       5.33        0.04     0.47   0.888
  SUB-1010                   6.00       0.00       0.00       0.59       5.32       0.31       5.32        0.04     0.49   0.887
  SUB-1012                   6.00       0.00       0.00       0.59       5.32       0.31       5.32        0.04     0.49   0.887
  SUB-1014                   6.00       0.00       0.00       0.59       5.32       0.31       5.32        0.04     0.49   0.887
  SUB-1016                   6.00       0.00       0.00       0.59       5.33       0.31       5.33        0.04     0.48   0.888
  SUB-1018                   6.00       0.00       0.00       0.58       5.33       0.32       5.33        0.03     0.46   0.888
  SUB-102                    6.00       0.00       0.00       0.18       5.74       0.12       5.74        0.01     0.17   0.956
  SUB-1020                   6.00       0.00       0.00       0.38       5.53       0.22       5.53        0.03     0.44   0.921
  SUB-1022                   6.00       0.00       0.00       0.38       5.53       0.22       5.53        0.03     0.43   0.921
  SUB-1024                   6.00       0.00       0.00       0.00       5.91       0.00       5.91        0.02     0.21   0.985
  SUB-1026                   6.00       0.00       0.00       0.00       5.90       0.00       5.90        0.02     0.26   0.984
  SUB-1028                   6.00       0.00       0.00       0.00       5.90       0.00       5.90        0.02     0.28   0.984
  SUB-1030                   6.00       0.00       0.00       4.66       0.00       1.34       1.34        0.02     0.24   0.223
  SUB-1032                   6.00       0.00       0.00       0.56       5.36       0.34       5.36        0.02     0.23   0.893
  SUB-1034                   6.00       0.00       0.00       0.57       5.35       0.33       5.35        0.02     0.28   0.892
  SUB-1036                   6.00       0.00       0.00       0.56       5.37       0.34       5.37        0.01     0.17   0.895
  SUB-1038                   6.00       0.00       0.00       3.18       2.79       1.32       2.79        0.02     0.28   0.466
  SUB-104                    6.00       0.00       0.00       0.67       5.06       0.23       5.06        0.30     3.29   0.843
  SUB-1040                   6.00       0.00       0.00       0.18       5.72       0.12       5.72        0.03     0.34   0.954
  SUB-1042                   6.00       0.00       0.00       0.37       5.56       0.23       5.56        0.01     0.17   0.926
  SUB-1044                   6.00       0.00       0.00       0.36       5.56       0.24       5.56        0.01     0.16   0.926
  SUB-1046                   6.00       0.00       0.00       0.18       5.72       0.12       5.72        0.03     0.44   0.953
  SUB-1048                   6.00       0.00       0.00       0.18       5.72       0.12       5.72        0.03     0.44   0.953
  SUB-1050                   6.00       0.00       0.00       0.18       5.73       0.12       5.73        0.02     0.25   0.955
  SUB-1052                   6.00       0.00       0.00       0.19       5.71       0.12       5.71        0.04     0.49   0.952
  SUB-1054                   6.00       0.00       0.00       0.19       5.71       0.11       5.71        0.05     0.61   0.951
  SUB-1056                   6.00       0.00       0.00       0.59       5.32       0.31       5.32        0.04     0.49   0.887
  SUB-1058                   6.00       0.00       0.00       0.60       5.31       0.31       5.31        0.05     0.65   0.885
  SUB-106                    6.00       0.00       0.00       1.15       4.79       0.65       4.79        0.01     0.16   0.799
  SUB-1060                   6.00       0.00       0.00       0.58       5.33       0.32       5.33        0.03     0.44   0.888
  SUB-1062                   6.00       0.00       0.00       2.63       3.33       0.97       3.33        0.04     0.53   0.554
  SUB-1064                   6.00       0.00       0.00       0.39       5.51       0.21       5.51        0.05     0.69   0.918
  SUB-108                    6.00       0.00       0.00       2.59       3.38       1.31       3.38        0.01     0.15   0.563
  SUB-110                    6.00       0.00       0.00       0.00       5.90       0.00       5.90        0.03     0.35   0.983
  SUB-112                    6.00       0.00       0.00       0.60       5.30       0.30       5.30        0.06     0.73   0.884
  SUB-114                    6.00       0.00       0.00       0.59       5.31       0.31       5.31        0.05     0.62   0.885
  SUB-116                    6.00       0.00       0.00       0.58       5.34       0.33       5.34        0.03     0.35   0.890
  SUB-118                    6.00       0.00       0.00       0.57       5.34       0.33       5.34        0.02     0.32   0.891
  SUB-12                     6.00       0.00       0.00       4.15       1.64       0.23       1.64        0.32     3.20   0.273
  SUB-120                    6.00       0.00       0.00       0.82       5.08       0.38       5.08        0.07     0.87   0.847
  SUB-122                    6.00       0.00       0.00       0.83       5.06       0.37       5.06        0.09     1.17   0.843
  SUB-124                    6.00       0.00       0.00       0.55       5.38       0.35       5.38        0.01     0.12   0.897
  SUB-126                    6.00       0.00       0.00       0.74       5.20       0.47       5.20        0.01     0.10   0.867
  SUB-128                    6.00       0.00       0.00       0.74       5.20       0.46       5.20        0.01     0.11   0.866
  SUB-130                    6.00       0.00       0.00       2.24       3.74       1.37       3.74        0.00     0.04   0.623
  SUB-132                    6.00       0.00       0.00       2.25       3.73       1.35       3.73        0.00     0.05   0.621
  SUB-134                    6.00       0.00       0.00       0.58       5.34       0.32       5.34        0.03     0.38   0.890
  SUB-136                    6.00       0.00       0.00       0.17       5.77       0.13       5.77        0.00     0.02   0.961
  SUB-138                    6.00       0.00       0.00       0.19       5.71       0.12       5.71        0.04     0.49   0.952
  SUB-14                     6.00       0.00       0.00       0.37       5.54       0.23       5.54        0.02     0.29   0.924
  SUB-140                    6.00       0.00       0.00       0.18       5.76       0.13       5.76        0.00     0.04   0.960
  SUB-142                    6.00       0.00       0.00       0.19       5.71       0.12       5.71        0.04     0.50   0.952
  SUB-144                    6.00       0.00       0.00       0.20       5.59       0.10       5.59        0.19     2.28   0.931
  SUB-146                    6.00       0.00       0.00       0.00       5.88       0.00       5.88        0.06     0.71   0.980
  SUB-148                    6.00       0.00       0.00       0.00       5.91       0.00       5.91        0.01     0.16   0.985
  SUB-150                    6.00       0.00       0.00       0.19       5.69       0.11       5.69        0.07     0.89   0.948
  SUB-152                    6.00       0.00       0.00       0.19       5.66       0.11       5.66        0.10     1.27   0.944
  SUB-154                    6.00       0.00       0.00       0.66       5.11       0.24       5.11        0.25     2.86   0.851
  SUB-156                    6.00       0.00       0.00       0.20       5.58       0.10       5.58        0.20     2.32   0.931
  SUB-158                    6.00       0.00       0.00       0.20       5.63       0.10       5.63        0.14     1.71   0.938
  SUB-16                     6.00       0.00       0.00       0.19       5.67       0.11       5.67        0.09     1.08   0.946
  SUB-160                    6.00       0.00       0.00       0.00       5.83       0.00       5.83        0.13     1.56   0.971
  SUB-162                    6.00       0.00       0.00       0.60       5.31       0.31       5.31        0.05     0.66   0.885
  SUB-164                    6.00       0.00       0.00       0.98       4.95       0.52       4.95        0.02     0.29   0.825
  SUB-166                    6.00       0.00       0.00       0.40       5.48       0.20       5.48        0.08     1.04   0.913
  SUB-168                    6.00       0.00       0.00       0.20       5.64       0.10       5.64        0.13     1.56   0.940
  SUB-170                    6.00       0.00       0.00       0.62       5.23       0.28       5.23        0.13     1.62   0.872
  SUB-172                    6.00       0.00       0.00       0.20       5.61       0.10       5.61        0.17     2.01   0.935
  SUB-174                    6.00       0.00       0.00       3.25       2.73       1.25       2.73        0.02     0.32   0.455
  SUB-176                    6.00       0.00       0.00       1.01       4.91       0.49       4.91        0.04     0.58   0.818
  SUB-178                    6.00       0.00       0.00       3.89       2.07       0.61       2.07        0.10     1.11   0.345
  SUB-18                     6.00       0.00       0.00       2.48       3.42       0.52       3.42        0.17     1.85   0.570
  SUB-180                    6.00       0.00       0.00       0.39       5.51       0.21       5.51        0.05     0.63   0.918
  SUB-182                    6.00       0.00       0.00       0.00       5.88       0.00       5.88        0.05     0.62   0.981
  SUB-184                    6.00       0.00       0.00       0.87       4.97       0.33       4.97        0.17     1.99   0.828
  SUB-186                    6.00       0.00       0.00       0.38       5.53       0.22       5.53        0.03     0.41   0.922
  SUB-188                    6.00       0.00       0.00       2.91       3.06       0.99       3.06        0.04     0.53   0.510
  SUB-190                    6.00       0.00       0.00       0.19       5.71       0.11       5.71        0.05     0.59   0.951
  SUB-192                    6.00       0.00       0.00       0.80       5.12       0.40       5.12        0.04     0.53   0.853
  SUB-194                    6.00       0.00       0.00       0.82       5.07       0.38       5.07        0.08     1.04   0.845
  SUB-196                    6.00       0.00       0.00       0.00       5.89       0.00       5.89        0.04     0.46   0.982
  SUB-198                    6.00       0.00       0.00       0.00       5.90       0.00       5.90        0.03     0.34   0.983
  SUB-20                     6.00       0.00       0.00       2.85       3.09       0.75       3.09        0.08     0.97   0.516
  SUB-200                    6.00       0.00       0.00       0.39       5.51       0.21       5.51        0.05     0.60   0.919
  SUB-202                    6.00       0.00       0.00       3.75       2.22       0.75       2.22        0.08     0.83   0.369
  SUB-204                    6.00       0.00       0.00       1.07       4.82       0.43       4.82        0.11     1.34   0.803
  SUB-206                    6.00       0.00       0.00       0.39       5.51       0.21       5.51        0.05     0.70   0.918
  SUB-208                    6.00       0.00       0.00       0.61       5.28       0.29       5.28        0.08     1.00   0.880
  SUB-210                    6.00       0.00       0.00       3.58       2.39       0.92       2.39        0.05     0.61   0.399
  SUB-212                    6.00       0.00       0.00       0.61       5.28       0.29       5.28        0.08     1.01   0.880
  SUB-214                    6.00       0.00       0.00       0.20       5.54       0.10       5.54        0.25     2.83   0.923
  SUB-216                    6.00       0.00       0.00       3.13       2.83       0.77       2.83        0.08     0.90   0.471
  SUB-218                    6.00       0.00       0.00       3.49       2.49       1.01       2.49        0.04     0.51   0.414
  SUB-22                     6.00       0.00       0.00       0.00       5.92       0.00       5.92        0.01     0.07   0.987
  SUB-220                    6.00       0.00       0.00       3.21       2.77       1.29       2.77        0.02     0.29   0.462
  SUB-222                    6.00       0.00       0.00       3.25       2.73       1.25       2.73        0.02     0.32   0.455
  SUB-224                    6.00       0.00       0.00       3.27       2.71       1.23       2.71        0.02     0.34   0.451
  SUB-226                    6.00       0.00       0.00       3.08       2.90       1.42       2.90        0.01     0.19   0.484
  SUB-228                    6.00       0.00       0.00       3.39       2.58       1.11       2.58        0.03     0.43   0.430
  SUB-230                    6.00       0.00       0.00       2.13       3.82       0.87       3.82        0.04     0.54   0.636
  SUB-232                    6.00       0.00       0.00       3.73       2.24       0.77       2.24        0.07     0.80   0.373
  SUB-234                    6.00       0.00       0.00       2.70       3.25       0.90       3.25        0.05     0.65   0.542
  SUB-236                    6.00       0.00       0.00       1.25       4.38       0.25       4.38        0.47     4.56   0.730
  SUB-238                    6.00       0.00       0.00       3.18       2.80       1.32       2.80        0.02     0.27   0.466
  SUB-24                     6.00       0.00       0.00       0.00       5.79       0.00       5.79        0.17     2.02   0.965
  SUB-240                    6.00       0.00       0.00       0.38       5.52       0.22       5.52        0.04     0.54   0.920
  SUB-242                    6.00       0.00       0.00       0.74       5.19       0.46       5.19        0.01     0.13   0.865
  SUB-244                    6.00       0.00       0.00       0.00       5.88       0.00       5.88        0.05     0.61   0.981
  SUB-246                    6.00       0.00       0.00       0.72       5.22       0.48       5.22        0.00     0.06   0.870
  SUB-248                    6.00       0.00       0.00       0.72       5.23       0.49       5.23        0.00     0.04   0.872
  SUB-250                    6.00       0.00       0.00       0.00       5.87       0.00       5.87        0.08     0.95   0.978
  SUB-252                    6.00       0.00       0.00       0.37       5.54       0.23       5.54        0.02     0.26   0.924
  SUB-254                    6.00       0.00       0.00       0.73       5.21       0.47       5.21        0.01     0.08   0.869
  SUB-256                    6.00       0.00       0.00       0.73       5.22       0.48       5.22        0.00     0.06   0.869
  SUB-258                    6.00       0.00       0.00       0.77       5.16       0.43       5.16        0.02     0.26   0.860
  SUB-26                     6.00       0.00       0.00       0.00       5.88       0.00       5.88        0.06     0.73   0.980
  SUB-260                    6.00       0.00       0.00       0.59       5.32       0.31       5.32        0.04     0.51   0.887
  SUB-262                    6.00       0.00       0.00       0.60       5.31       0.30       5.31        0.05     0.69   0.884
  SUB-264                    6.00       0.00       0.00       0.60       5.29       0.30       5.29        0.06     0.83   0.882
  SUB-266                    6.00       0.00       0.00       0.00       5.85       0.00       5.85        0.10     1.26   0.974
  SUB-268                    6.00       0.00       0.00       0.40       5.48       0.20       5.48        0.08     1.02   0.914
  SUB-270                    6.00       0.00       0.00       0.80       5.11       0.40       5.11        0.05     0.61   0.852
  SUB-272                    6.00       0.00       0.00       0.71       5.24       0.49       5.24        0.00     0.02   0.874
  SUB-274                    6.00       0.00       0.00       0.72       5.22       0.48       5.22        0.00     0.06   0.870
  SUB-276                    6.00       0.00       0.00       0.75       5.18       0.45       5.18        0.01     0.18   0.863
  SUB-278                    6.00       0.00       0.00       0.75       5.18       0.45       5.18        0.01     0.18   0.863
  SUB-28                     6.00       0.00       0.00       2.79       3.18       1.11       3.18        0.03     0.38   0.530
  SUB-280                    6.00       0.00       0.00       0.73       5.22       0.48       5.22        0.00     0.07   0.869
  SUB-282                    6.00       0.00       0.00       3.46       2.51       1.04       2.51        0.04     0.49   0.419
  SUB-284                    6.00       0.00       0.00       1.14       4.69       0.36       4.69        0.20     2.31   0.782
  SUB-286                    6.00       0.00       0.00       0.39       5.50       0.21       5.50        0.06     0.72   0.917
  SUB-288                    6.00       0.00       0.00       0.59       5.31       0.31       5.31        0.04     0.59   0.886
  SUB-290                    6.00       0.00       0.00       3.60       2.37       0.90       2.37        0.06     0.63   0.395
  SUB-292                    6.00       0.00       0.00       0.37       5.54       0.23       5.54        0.02     0.30   0.923
  SUB-294                    6.00       0.00       0.00       0.36       5.56       0.24       5.56        0.01     0.15   0.927
  SUB-296                    6.00       0.00       0.00       0.37       5.54       0.23       5.54        0.02     0.28   0.924
  SUB-298                    6.00       0.00       0.00       0.61       5.26       0.29       5.26        0.10     1.25   0.877
  SUB-30                     6.00       0.00       0.00       0.72       5.23       0.49       5.23        0.00     0.04   0.872
  SUB-300                    6.00       0.00       0.00       2.91       3.07       1.59       3.07        0.00     0.07   0.512
  SUB-302                    6.00       0.00       0.00       2.87       3.11       1.63       3.11        0.00     0.06   0.519
  SUB-304                    6.00       0.00       0.00       0.83       5.06       0.37       5.06        0.09     1.12   0.843
  SUB-306                    6.00       0.00       0.00       0.39       5.50       0.21       5.50        0.06     0.72   0.917
  SUB-308                    6.00       0.00       0.00       0.38       5.52       0.22       5.52        0.04     0.48   0.921
  SUB-310                    6.00       0.00       0.00       0.00       5.86       0.00       5.86        0.08     0.96   0.977
  SUB-312                    6.00       0.00       0.00       3.00       2.98       1.50       2.98        0.01     0.13   0.496
  SUB-314                    6.00       0.00       0.00       0.00       5.91       0.00       5.91        0.01     0.18   0.985
  SUB-316                    6.00       0.00       0.00       3.02       2.96       1.48       2.96        0.01     0.14   0.494
  SUB-318                    6.00       0.00       0.00       0.00       5.91       0.00       5.91        0.02     0.23   0.984
  SUB-32                     6.00       0.00       0.00       0.18       5.75       0.12       5.75        0.01     0.09   0.958
  SUB-320                    6.00       0.00       0.00       2.98       3.01       1.52       3.01        0.01     0.11   0.501
  SUB-322                    6.00       0.00       0.00       0.18       5.74       0.12       5.74        0.01     0.13   0.957
  SUB-324                    6.00       0.00       0.00       0.18       5.74       0.12       5.74        0.01     0.14   0.957
  SUB-326                    6.00       0.00       0.00       0.37       5.54       0.23       5.54        0.03     0.33   0.923
  SUB-328                    6.00       0.00       0.00       0.38       5.53       0.22       5.53        0.03     0.39   0.922
  SUB-330                    6.00       0.00       0.00       0.39       5.51       0.21       5.51        0.05     0.68   0.918
  SUB-332                    6.00       0.00       0.00       0.38       5.52       0.22       5.52        0.04     0.52   0.920
  SUB-334                    6.00       0.00       0.00       0.35       5.60       0.25       5.60        0.00     0.02   0.933
  SUB-336                    6.00       0.00       0.00       0.38       5.52       0.22       5.52        0.04     0.53   0.920
  SUB-338                    6.00       0.00       0.00       0.36       5.56       0.24       5.56        0.01     0.15   0.926
  SUB-34                     6.00       0.00       0.00       2.70       3.27       1.20       3.27        0.02     0.28   0.545
  SUB-340                    6.00       0.00       0.00       0.85       5.01       0.35       5.01        0.13     1.63   0.835
  SUB-342                    6.00       0.00       0.00       0.59       5.32       0.31       5.32        0.04     0.53   0.886
  SUB-344                    6.00       0.00       0.00       0.87       4.98       0.33       4.98        0.16     1.93   0.830
  SUB-346                    6.00       0.00       0.00       1.24       4.68       0.56       4.68        0.05     0.72   0.779
  SUB-348                    6.00       0.00       0.00       0.56       5.36       0.34       5.36        0.02     0.21   0.894
  SUB-350                    6.00       0.00       0.00       0.58       5.33       0.32       5.33        0.03     0.44   0.888
  SUB-352                    6.00       0.00       0.00       0.60       5.31       0.30       5.31        0.05     0.69   0.884
  SUB-354                    6.00       0.00       0.00       0.60       5.30       0.30       5.30        0.06     0.75   0.883
  SUB-356                    6.00       0.00       0.00       2.91       3.03       0.69       3.03        0.10     1.12   0.505
  SUB-358                    6.00       0.00       0.00       3.08       2.90       1.42       2.90        0.01     0.20   0.483
  SUB-36                     6.00       0.00       0.00       0.56       5.36       0.34       5.36        0.02     0.21   0.894
  SUB-360                    6.00       0.00       0.00       0.63       5.22       0.27       5.22        0.14     1.75   0.870
  SUB-362                    6.00       0.00       0.00       0.00       5.86       0.00       5.86        0.09     1.08   0.976
  SUB-364                    6.00       0.00       0.00       3.10       2.85       0.80       2.85        0.07     0.85   0.476
  SUB-366                    6.00       0.00       0.00       1.62       4.33       0.79       4.33        0.02     0.33   0.721
  SUB-368                    6.00       0.00       0.00       2.97       3.02       1.53       3.02        0.01     0.10   0.503
  SUB-370                    6.00       0.00       0.00       3.14       2.84       1.36       2.84        0.02     0.24   0.473
  SUB-372                    6.00       0.00       0.00       2.01       3.94       0.99       3.94        0.02     0.24   0.657
  SUB-374                    6.00       0.00       0.00       2.02       3.94       0.98       3.94        0.02     0.26   0.656
  SUB-376                    6.00       0.00       0.00       2.48       3.48       1.12       3.48        0.02     0.30   0.580
  SUB-378                    6.00       0.00       0.00       1.19       4.74       0.61       4.74        0.02     0.32   0.790
  SUB-38                     6.00       0.00       0.00       0.82       5.07       0.38       5.07        0.08     1.04   0.845
  SUB-380                    6.00       0.00       0.00       2.01       3.95       0.99       3.95        0.01     0.23   0.658
  SUB-382                    6.00       0.00       0.00       3.03       2.96       1.48       2.96        0.01     0.15   0.493
  SUB-384                    6.00       0.00       0.00       0.72       5.22       0.48       5.22        0.00     0.06   0.870
  SUB-386                    6.00       0.00       0.00       0.00       5.89       0.00       5.89        0.04     0.49   0.982
  SUB-388                    6.00       0.00       0.00       0.00       5.89       0.00       5.89        0.04     0.52   0.982
  SUB-390                    6.00       0.00       0.00       3.22       2.76       1.28       2.76        0.02     0.30   0.460
  SUB-392                    6.00       0.00       0.00       2.45       3.52       1.15       3.52        0.02     0.24   0.586
  SUB-394                    6.00       0.00       0.00       0.41       5.44       0.19       5.44        0.13     1.64   0.906
  SUB-396                    6.00       0.00       0.00       1.03       4.87       0.47       4.87        0.07     0.87   0.812
  SUB-398                    6.00       0.00       0.00       2.71       3.26       1.19       3.26        0.02     0.29   0.543
  SUB-40                     6.00       0.00       0.00       0.77       5.16       0.43       5.16        0.02     0.25   0.860
  SUB-400                    6.00       0.00       0.00       0.80       5.11       0.40       5.11        0.05     0.64   0.851
  SUB-402                    6.00       0.00       0.00       0.38       5.52       0.22       5.52        0.04     0.47   0.921
  SUB-404                    6.00       0.00       0.00       1.27       4.64       0.53       4.64        0.07     0.93   0.774
  SUB-406                    6.00       0.00       0.00       0.76       5.17       0.44       5.17        0.02     0.21   0.862
  SUB-408                    6.00       0.00       0.00       0.79       5.13       0.41       5.13        0.03     0.43   0.855
  SUB-410                    6.00       0.00       0.00       0.78       5.14       0.42       5.14        0.03     0.37   0.856
  SUB-412                    6.00       0.00       0.00       0.78       5.15       0.43       5.15        0.02     0.31   0.858
  SUB-414                    6.00       0.00       0.00       0.74       5.20       0.46       5.20        0.01     0.11   0.866
  SUB-416                    6.00       0.00       0.00       0.84       5.05       0.36       5.05        0.10     1.27   0.841
  SUB-418                    6.00       0.00       0.00       0.80       5.11       0.40       5.11        0.04     0.59   0.852
  SUB-42                     6.00       0.00       0.00       0.75       5.19       0.45       5.19        0.01     0.15   0.864
  SUB-420                    6.00       0.00       0.00       0.75       5.18       0.45       5.18        0.01     0.18   0.863
  SUB-422                    6.00       0.00       0.00       0.00       5.82       0.00       5.82        0.14     1.71   0.969
  SUB-424                    6.00       0.00       0.00       1.96       4.00       1.04       4.00        0.01     0.14   0.667
  SUB-426                    6.00       0.00       0.00       1.87       4.10       1.14       4.10        0.00     0.05   0.684
  SUB-428                    6.00       0.00       0.00       1.86       4.11       1.14       4.11        0.00     0.05   0.684
  SUB-430                    6.00       0.00       0.00       0.78       5.15       0.42       5.15        0.02     0.32   0.858
  SUB-432                    6.00       0.00       0.00       0.77       5.15       0.43       5.15        0.02     0.28   0.859
  SUB-434                    6.00       0.00       0.00       0.00       5.88       0.00       5.88        0.06     0.69   0.980
  SUB-436                    6.00       0.00       0.00       0.85       5.01       0.35       5.01        0.13     1.63   0.835
  SUB-438                    6.00       0.00       0.00       0.58       5.33       0.32       5.33        0.03     0.43   0.888
  SUB-44                     6.00       0.00       0.00       2.08       3.87       0.92       3.87        0.03     0.41   0.645
  SUB-440                    6.00       0.00       0.00       0.58       5.34       0.32       5.34        0.03     0.38   0.890
  SUB-442                    6.00       0.00       0.00       0.59       5.32       0.31       5.32        0.04     0.56   0.886
  SUB-444                    6.00       0.00       0.00       0.59       5.33       0.32       5.33        0.04     0.47   0.888
  SUB-446                    6.00       0.00       0.00       0.58       5.33       0.32       5.33        0.03     0.46   0.888
  SUB-448                    6.00       0.00       0.00       0.77       5.16       0.44       5.16        0.02     0.25   0.860
  SUB-450                    6.00       0.00       0.00       0.99       4.93       0.51       4.93        0.03     0.39   0.822
  SUB-452                    6.00       0.00       0.00       1.00       4.92       0.50       4.92        0.04     0.51   0.820
  SUB-454                    6.00       0.00       0.00       0.79       5.12       0.41       5.12        0.04     0.50   0.854
  SUB-456                    6.00       0.00       0.00       1.19       4.74       0.61       4.74        0.02     0.33   0.790
  SUB-458                    6.00       0.00       0.00       0.74       5.19       0.46       5.19        0.01     0.12   0.866
  SUB-46                     6.00       0.00       0.00       1.91       4.06       1.09       4.06        0.01     0.09   0.676
  SUB-460                    6.00       0.00       0.00       0.76       5.17       0.44       5.17        0.02     0.21   0.862
  SUB-462                    6.00       0.00       0.00       0.00       5.86       0.00       5.86        0.08     1.03   0.977
  SUB-464                    6.00       0.00       0.00       2.42       3.54       1.18       3.54        0.01     0.21   0.591
  SUB-466                    6.00       0.00       0.00       2.50       3.47       1.10       3.47        0.02     0.32   0.578
  SUB-468                    6.00       0.00       0.00       0.79       5.14       0.42       5.14        0.03     0.38   0.856
  SUB-470                    6.00       0.00       0.00       1.91       4.05       1.09       4.05        0.01     0.09   0.675
  SUB-472                    6.00       0.00       0.00       2.44       3.52       1.16       3.52        0.01     0.23   0.587
  SUB-474                    6.00       0.00       0.00       2.48       3.49       1.12       3.49        0.02     0.29   0.581
  SUB-476                    6.00       0.00       0.00       1.14       4.80       0.66       4.80        0.01     0.14   0.800
  SUB-478                    6.00       0.00       0.00       0.00       5.89       0.00       5.89        0.04     0.52   0.982
  SUB-48                     6.00       0.00       0.00       0.82       5.08       0.38       5.08        0.07     0.92   0.847
  SUB-480                    6.00       0.00       0.00       0.00       5.91       0.00       5.91        0.01     0.15   0.985
  SUB-482                    6.00       0.00       0.00       1.01       4.90       0.49       4.90        0.05     0.62   0.817
  SUB-484                    6.00       0.00       0.00       0.60       5.29       0.30       5.29        0.07     0.91   0.881
  SUB-486                    6.00       0.00       0.00       0.79       5.13       0.41       5.13        0.03     0.44   0.855
  SUB-488                    6.00       0.00       0.00       1.01       4.91       0.49       4.91        0.04     0.57   0.818
  SUB-490                    6.00       0.00       0.00       2.24       3.70       0.76       3.70        0.07     0.83   0.617
  SUB-492                    6.00       0.00       0.00       0.58       5.33       0.32       5.33        0.03     0.45   0.888
  SUB-494                    6.00       0.00       0.00       0.59       5.31       0.31       5.31        0.05     0.61   0.885
  SUB-496                    6.00       0.00       0.00       0.62       5.25       0.28       5.25        0.11     1.41   0.875
  SUB-498                    6.00       0.00       0.00       0.82       5.07       0.38       5.07        0.08     0.98   0.846
  SUB-50                     6.00       0.00       0.00       0.57       5.36       0.34       5.36        0.02     0.24   0.893
  SUB-500                    6.00       0.00       0.00       0.39       5.49       0.21       5.49        0.07     0.88   0.915
  SUB-502                    6.00       0.00       0.00       0.39       5.49       0.21       5.49        0.07     0.87   0.915
  SUB-504                    6.00       0.00       0.00       0.86       5.00       0.34       5.00        0.14     1.76   0.833
  SUB-506                    6.00       0.00       0.00       0.00       5.87       0.00       5.87        0.07     0.87   0.978
  SUB-508                    6.00       0.00       0.00       0.60       5.29       0.30       5.29        0.07     0.87   0.882
  SUB-510                    6.00       0.00       0.00       0.54       5.39       0.36       5.39        0.01     0.08   0.899
  SUB-512                    6.00       0.00       0.00       1.99       3.97       1.01       3.97        0.01     0.18   0.662
  SUB-514                    6.00       0.00       0.00       2.04       3.92       0.97       3.92        0.02     0.29   0.653
  SUB-516                    6.00       0.00       0.00       2.07       3.88       0.93       3.88        0.03     0.39   0.647
  SUB-518                    6.00       0.00       0.00       1.74       4.18       0.66       4.18        0.07     0.90   0.697
  SUB-52                     6.00       0.00       0.00       1.91       4.06       1.10       4.06        0.01     0.08   0.677
  SUB-520                    6.00       0.00       0.00       2.06       3.90       0.94       3.90        0.02     0.35   0.650
  SUB-522                    6.00       0.00       0.00       0.20       5.64       0.10       5.64        0.12     1.53   0.941
  SUB-524                    6.00       0.00       0.00       0.39       5.49       0.21       5.49        0.07     0.87   0.915
  SUB-526                    6.00       0.00       0.00       0.78       5.15       0.43       5.15        0.02     0.31   0.858
  SUB-528                    6.00       0.00       0.00       0.82       5.08       0.38       5.08        0.07     0.92   0.847
  SUB-530                    6.00       0.00       0.00       1.24       4.68       0.56       4.68        0.05     0.68   0.781
  SUB-532                    6.00       0.00       0.00       2.10       3.86       0.91       3.86        0.03     0.44   0.643
  SUB-534                    6.00       0.00       0.00       2.36       3.56       0.64       3.56        0.11     1.28   0.593
  SUB-536                    6.00       0.00       0.00       2.31       3.62       0.69       3.62        0.09     1.07   0.603
  SUB-538                    6.00       0.00       0.00       3.56       2.41       0.94       2.41        0.05     0.58   0.402
  SUB-54                     6.00       0.00       0.00       1.86       4.11       1.14       4.11        0.00     0.05   0.684
  SUB-540                    6.00       0.00       0.00       2.70       3.23       0.60       3.23        0.13     1.44   0.538
  SUB-542                    6.00       0.00       0.00       2.90       2.98       0.40       2.98        0.24     2.60   0.496
  SUB-544                    6.00       0.00       0.00       1.87       4.03       0.53       4.03        0.14     1.61   0.672
  SUB-546                    6.00       0.00       0.00       2.99       2.94       0.61       2.94        0.12     1.39   0.490
  SUB-548                    6.00       0.00       0.00       2.75       3.17       0.55       3.17        0.15     1.67   0.528
  SUB-550                    6.00       0.00       0.00       1.60       4.28       0.50       4.28        0.14     1.65   0.714
  SUB-552                    6.00       0.00       0.00       1.02       4.89       0.48       4.89        0.06     0.73   0.815
  SUB-554                    6.00       0.00       0.00       1.07       4.82       0.43       4.82        0.10     1.29   0.803
  SUB-556                    6.00       0.00       0.00       1.04       4.86       0.46       4.86        0.07     0.95   0.810
  SUB-558                    6.00       0.00       0.00       1.72       4.21       0.69       4.21        0.06     0.77   0.702
  SUB-56                     6.00       0.00       0.00       0.64       5.17       0.26       5.17        0.19     2.22   0.862
  SUB-560                    6.00       0.00       0.00       1.75       4.18       0.65       4.18        0.07     0.93   0.696
  SUB-562                    6.00       0.00       0.00       1.72       4.21       0.68       4.21        0.06     0.80   0.701
  SUB-564                    6.00       0.00       0.00       1.60       4.34       0.80       4.34        0.02     0.28   0.724
  SUB-566                    6.00       0.00       0.00       1.10       4.76       0.40       4.76        0.15     1.80   0.793
  SUB-568                    6.00       0.00       0.00       1.90       3.99       0.50       3.99        0.16     1.82   0.665
  SUB-570                    6.00       0.00       0.00       2.10       3.65       0.30       3.65        0.39     3.94   0.609
  SUB-572                    6.00       0.00       0.00       1.12       4.73       0.38       4.73        0.17     2.03   0.788
  SUB-574                    6.00       0.00       0.00       0.40       5.46       0.20       5.46        0.10     1.32   0.910
  SUB-576                    6.00       0.00       0.00       1.12       4.72       0.38       4.72        0.18     2.08   0.787
  SUB-578                    6.00       0.00       0.00       0.18       5.72       0.12       5.72        0.03     0.41   0.953
  SUB-58                     6.00       0.00       0.00       1.02       4.89       0.48       4.89        0.06     0.74   0.815
  SUB-580                    6.00       0.00       0.00       0.60       5.30       0.30       5.30        0.06     0.73   0.884
  SUB-582                    6.00       0.00       0.00       0.37       5.55       0.23       5.55        0.02     0.21   0.925
  SUB-584                    6.00       0.00       0.00       0.18       5.72       0.12       5.72        0.03     0.36   0.954
  SUB-586                    6.00       0.00       0.00       0.37       5.55       0.23       5.55        0.02     0.23   0.925
  SUB-588                    6.00       0.00       0.00       0.37       5.54       0.23       5.54        0.02     0.28   0.924
  SUB-590                    6.00       0.00       0.00       0.19       5.71       0.11       5.71        0.05     0.58   0.951
  SUB-592                    6.00       0.00       0.00       0.19       5.66       0.11       5.66        0.10     1.25   0.944
  SUB-594                    6.00       0.00       0.00       0.63       5.20       0.27       5.20        0.16     1.92   0.867
  SUB-596                    6.00       0.00       0.00       0.84       5.03       0.36       5.03        0.12     1.44   0.838
  SUB-598                    6.00       0.00       0.00       0.36       5.58       0.25       5.58        0.00     0.06   0.930
  SUB-60                     6.00       0.00       0.00       0.40       5.48       0.20       5.48        0.09     1.11   0.913
  SUB-600                    6.00       0.00       0.00       2.33       3.60       0.68       3.60        0.10     1.13   0.601
  SUB-602                    6.00       0.00       0.00       2.96       2.98       0.64       2.98        0.11     1.27   0.497
  SUB-604                    6.00       0.00       0.00       0.19       5.71       0.11       5.71        0.04     0.53   0.952
  SUB-606                    6.00       0.00       0.00       0.37       5.54       0.23       5.54        0.02     0.26   0.924
  SUB-608                    6.00       0.00       0.00       2.70       3.26       0.90       3.26        0.05     0.64   0.543
  SUB-610                    6.00       0.00       0.00       2.67       3.29       0.93       3.29        0.05     0.58   0.548
  SUB-612                    6.00       0.00       0.00       2.89       3.05       0.71       3.05        0.09     1.07   0.509
  SUB-614                    6.00       0.00       0.00       0.39       5.51       0.21       5.51        0.05     0.64   0.918
  SUB-616                    6.00       0.00       0.00       0.37       5.55       0.23       5.55        0.02     0.20   0.925
  SUB-618                    6.00       0.00       0.00       2.54       3.42       1.06       3.42        0.03     0.39   0.570
  SUB-62                     6.00       0.00       0.00       0.18       5.74       0.12       5.74        0.01     0.11   0.957
  SUB-620                    6.00       0.00       0.00       1.88       4.09       1.13       4.09        0.00     0.06   0.682
  SUB-622                    6.00       0.00       0.00       2.09       3.86       0.91       3.86        0.03     0.44   0.643
  SUB-624                    6.00       0.00       0.00       2.07       3.89       0.93       3.89        0.03     0.37   0.648
  SUB-626                    6.00       0.00       0.00       0.37       5.55       0.23       5.55        0.01     0.18   0.926
  SUB-628                    6.00       0.00       0.00       2.97       2.96       0.63       2.96        0.12     1.33   0.493
  SUB-630                    6.00       0.00       0.00       0.36       5.56       0.24       5.56        0.01     0.15   0.926
  SUB-632                    6.00       0.00       0.00       3.11       2.80       0.49       2.80        0.18     1.91   0.467
  SUB-634                    6.00       0.00       0.00       0.37       5.55       0.23       5.55        0.01     0.18   0.926
  SUB-636                    6.00       0.00       0.00       2.66       3.31       1.24       3.31        0.01     0.23   0.551
  SUB-638                    6.00       0.00       0.00       2.66       3.27       0.64       3.27        0.11     1.28   0.545
  SUB-64                     6.00       0.00       0.00       0.40       5.47       0.20       5.47        0.10     1.22   0.911
  SUB-640                    6.00       0.00       0.00       2.86       3.08       0.74       3.08        0.09     1.00   0.514
  SUB-642                    6.00       0.00       0.00       2.69       3.24       0.61       3.24        0.12     1.41   0.539
  SUB-644                    6.00       0.00       0.00       3.19       2.77       0.71       2.77        0.09     1.03   0.461
  SUB-646                    6.00       0.00       0.00       2.58       3.36       0.72       3.36        0.09     1.02   0.560
  SUB-648                    6.00       0.00       0.00       2.54       3.34       0.46       3.34        0.21     2.26   0.556
  SUB-650                    6.00       0.00       0.00       2.48       3.42       0.52       3.42        0.16     1.83   0.571
  SUB-652                    6.00       0.00       0.00       2.47       3.44       0.53       3.44        0.16     1.78   0.573
  SUB-654                    6.00       0.00       0.00       2.24       3.72       1.06       3.72        0.02     0.26   0.620
  SUB-656                    6.00       0.00       0.00       1.40       4.54       0.70       4.54        0.02     0.32   0.757
  SUB-658                    6.00       0.00       0.00       1.50       4.42       0.60       4.42        0.07     0.92   0.736
  SUB-66                     6.00       0.00       0.00       0.60       5.30       0.30       5.30        0.06     0.73   0.884
  SUB-660                    6.00       0.00       0.00       2.34       3.59       0.66       3.59        0.10     1.18   0.598
  SUB-662                    6.00       0.00       0.00       2.40       3.51       0.60       3.51        0.13     1.46   0.585
  SUB-664                    6.00       0.00       0.00       2.75       3.20       0.85       3.20        0.06     0.74   0.534
  SUB-666                    6.00       0.00       0.00       2.89       3.05       0.71       3.05        0.09     1.07   0.509
  SUB-668                    6.00       0.00       0.00       2.90       3.05       0.70       3.05        0.10     1.09   0.508
  SUB-670                    6.00       0.00       0.00       2.80       3.11       0.50       3.11        0.17     1.91   0.518
  SUB-672                    6.00       0.00       0.00       2.89       3.06       0.71       3.06        0.09     1.05   0.510
  SUB-674                    6.00       0.00       0.00       2.56       3.38       0.74       3.38        0.08     0.98   0.563
  SUB-676                    6.00       0.00       0.00       2.56       3.38       0.74       3.38        0.08     0.97   0.563
  SUB-678                    6.00       0.00       0.00       2.87       3.07       0.73       3.07        0.09     1.02   0.512
  SUB-68                     6.00       0.00       0.00       0.83       5.05       0.37       5.05        0.09     1.20   0.842
  SUB-680                    6.00       0.00       0.00       2.34       3.58       0.66       3.58        0.10     1.20   0.597
  SUB-682                    6.00       0.00       0.00       2.61       3.35       0.99       3.35        0.04     0.49   0.559
  SUB-684                    6.00       0.00       0.00       2.95       2.99       0.65       2.99        0.11     1.24   0.498
  SUB-686                    6.00       0.00       0.00       2.48       3.43       0.52       3.43        0.16     1.83   0.571
  SUB-688                    6.00       0.00       0.00       3.18       2.72       0.42       2.72        0.22     2.32   0.453
  SUB-690                    6.00       0.00       0.00       2.54       3.34       0.46       3.34        0.21     2.26   0.556
  SUB-692                    6.00       0.00       0.00       3.06       2.86       0.54       2.86        0.15     1.66   0.477
  SUB-694                    6.00       0.00       0.00       0.38       5.52       0.22       5.52        0.04     0.48   0.921
  SUB-696                    6.00       0.00       0.00       2.35       3.62       1.25       3.62        0.01     0.11   0.603
  SUB-698                    6.00       0.00       0.00       2.48       3.42       0.52       3.42        0.17     1.86   0.570
  SUB-70                     6.00       0.00       0.00       0.86       5.00       0.34       5.00        0.14     1.70   0.834
  SUB-700                    6.00       0.00       0.00       2.74       3.21       0.86       3.21        0.06     0.73   0.535
  SUB-702                    6.00       0.00       0.00       2.81       3.14       0.79       3.14        0.07     0.87   0.523
  SUB-704                    6.00       0.00       0.00       1.53       4.38       0.57       4.38        0.09     1.09   0.731
  SUB-706                    6.00       0.00       0.00       1.32       4.57       0.48       4.57        0.12     1.42   0.762
  SUB-708                    6.00       0.00       0.00       2.80       3.15       0.80       3.15        0.07     0.85   0.524
  SUB-710                    6.00       0.00       0.00       1.67       4.27       0.73       4.27        0.04     0.56   0.711
  SUB-712                    6.00       0.00       0.00       2.58       3.38       1.02       3.38        0.03     0.45   0.563
  SUB-714                    6.00       0.00       0.00       0.19       5.68       0.11       5.68        0.07     0.95   0.947
  SUB-716                    6.00       0.00       0.00       2.40       3.57       1.20       3.57        0.01     0.17   0.595
  SUB-718                    6.00       0.00       0.00       1.63       4.25       0.47       4.25        0.16     1.85   0.708
  SUB-72                     6.00       0.00       0.00       0.80       5.12       0.40       5.12        0.04     0.52   0.853
  SUB-720                    6.00       0.00       0.00       0.61       5.26       0.29       5.26        0.10     1.28   0.876
  SUB-722                    6.00       0.00       0.00       0.36       5.57       0.24       5.57        0.01     0.11   0.928
  SUB-724                    6.00       0.00       0.00       0.62       5.24       0.28       5.24        0.12     1.44   0.874
  SUB-726                    6.00       0.00       0.00       0.37       5.54       0.23       5.54        0.02     0.31   0.923
  SUB-728                    6.00       0.00       0.00       0.38       5.53       0.22       5.53        0.03     0.41   0.922
  SUB-730                    6.00       0.00       0.00       0.60       5.30       0.30       5.30        0.06     0.76   0.883
  SUB-732                    6.00       0.00       0.00       0.81       5.10       0.39       5.10        0.06     0.77   0.849
  SUB-734                    6.00       0.00       0.00       0.82       5.07       0.38       5.07        0.08     1.00   0.845
  SUB-736                    6.00       0.00       0.00       0.58       5.34       0.32       5.34        0.03     0.40   0.889
  SUB-738                    6.00       0.00       0.00       0.55       5.37       0.35       5.37        0.01     0.15   0.896
  SUB-74                     6.00       0.00       0.00       0.18       5.74       0.12       5.74        0.01     0.15   0.957
  SUB-740                    6.00       0.00       0.00       0.00       5.87       0.00       5.87        0.07     0.83   0.979
  SUB-742                    6.00       0.00       0.00       0.56       5.37       0.34       5.37        0.01     0.18   0.895
  SUB-744                    6.00       0.00       0.00       0.59       5.32       0.31       5.32        0.04     0.52   0.887
  SUB-746                    6.00       0.00       0.00       1.03       4.88       0.47       4.88        0.06     0.84   0.813
  SUB-748                    6.00       0.00       0.00       0.00       5.86       0.00       5.86        0.08     1.02   0.977
  SUB-750                    6.00       0.00       0.00       0.81       5.10       0.40       5.10        0.05     0.68   0.851
  SUB-752                    6.00       0.00       0.00       0.00       5.86       0.00       5.86        0.08     0.96   0.977
  SUB-754                    6.00       0.00       0.00       2.02       3.94       0.98       3.94        0.02     0.26   0.656
  SUB-756                    6.00       0.00       0.00       1.02       4.90       0.48       4.90        0.05     0.68   0.816
  SUB-758                    6.00       0.00       0.00       0.40       5.48       0.20       5.48        0.08     1.03   0.913
  SUB-76                     6.00       0.00       0.00       0.63       5.22       0.27       5.22        0.14     1.74   0.870
  SUB-760                    6.00       0.00       0.00       2.52       3.44       1.08       3.44        0.02     0.35   0.574
  SUB-762                    6.00       0.00       0.00       0.19       5.70       0.11       5.70        0.05     0.64   0.951
  SUB-764                    6.00       0.00       0.00       3.29       2.69       1.21       2.69        0.03     0.35   0.448
  SUB-766                    6.00       0.00       0.00       2.96       3.03       1.54       3.03        0.00     0.09   0.505
  SUB-768                    6.00       0.00       0.00       2.92       3.07       1.59       3.07        0.00     0.07   0.512
  SUB-770                    6.00       0.00       0.00       2.82       3.17       1.69       3.17        0.00     0.04   0.529
  SUB-772                    6.00       0.00       0.00       3.21       2.77       1.29       2.77        0.02     0.29   0.462
  SUB-774                    6.00       0.00       0.00       2.89       3.10       1.62       3.10        0.00     0.06   0.517
  SUB-776                    6.00       0.00       0.00       2.55       3.41       1.05       3.41        0.03     0.39   0.569
  SUB-778                    6.00       0.00       0.00       1.97       3.99       1.03       3.99        0.01     0.15   0.664
  SUB-78                     6.00       0.00       0.00       0.19       5.70       0.11       5.70        0.05     0.70   0.950
  SUB-780                    6.00       0.00       0.00       2.40       3.57       1.20       3.57        0.01     0.17   0.594
  SUB-782                    6.00       0.00       0.00       2.03       3.93       0.97       3.93        0.02     0.28   0.655
  SUB-784                    6.00       0.00       0.00       0.75       5.18       0.45       5.18        0.01     0.16   0.864
  SUB-786                    6.00       0.00       0.00       1.83       4.11       0.87       4.11        0.02     0.34   0.686
  SUB-788                    6.00       0.00       0.00       2.86       3.13       1.64       3.13        0.00     0.05   0.521
  SUB-790                    6.00       0.00       0.00       2.08       3.88       0.92       3.88        0.03     0.40   0.646
  SUB-792                    6.00       0.00       0.00       2.95       3.04       1.56       3.04        0.00     0.09   0.506
  SUB-794                    6.00       0.00       0.00       3.32       2.66       1.18       2.66        0.03     0.37   0.443
  SUB-796                    6.00       0.00       0.00       3.09       2.89       1.41       2.89        0.01     0.20   0.481
  SUB-798                    6.00       0.00       0.00       2.95       3.03       1.55       3.03        0.00     0.09   0.506
  SUB-80                     6.00       0.00       0.00       2.77       3.20       1.13       3.20        0.03     0.36   0.533
  SUB-800                    6.00       0.00       0.00       2.91       3.08       1.59       3.08        0.00     0.07   0.513
  SUB-802                    6.00       0.00       0.00       2.44       3.54       1.46       3.54        0.00     0.05   0.590
  SUB-804                    6.00       0.00       0.00       2.31       3.66       1.29       3.66        0.00     0.08   0.610
  SUB-806                    6.00       0.00       0.00       0.18       5.73       0.12       5.73        0.02     0.22   0.955
  SUB-808                    6.00       0.00       0.00       0.87       4.98       0.33       4.98        0.16     1.91   0.830
  SUB-810                    6.00       0.00       0.00       1.74       4.18       0.66       4.18        0.07     0.90   0.697
  SUB-812                    6.00       0.00       0.00       0.19       5.71       0.11       5.71        0.04     0.52   0.952
  SUB-814                    6.00       0.00       0.00       0.18       5.73       0.12       5.73        0.02     0.20   0.956
  SUB-816                    6.00       0.00       0.00       1.77       4.16       0.64       4.16        0.08     1.01   0.693
  SUB-818                    6.00       0.00       0.00       0.80       5.12       0.40       5.12        0.04     0.56   0.853
  SUB-82                     6.00       0.00       0.00       0.19       5.71       0.11       5.71        0.04     0.54   0.952
  SUB-820                    6.00       0.00       0.00       1.63       4.32       0.77       4.32        0.03     0.38   0.719
  SUB-822                    6.00       0.00       0.00       3.11       2.80       0.49       2.80        0.18     1.91   0.467
  SUB-824                    6.00       0.00       0.00       0.18       5.73       0.12       5.73        0.02     0.30   0.954
  SUB-826                    6.00       0.00       0.00       0.19       5.71       0.12       5.71        0.04     0.49   0.952
  SUB-828                    6.00       0.00       0.00       0.18       5.73       0.12       5.73        0.02     0.28   0.955
  SUB-830                    6.00       0.00       0.00       0.19       5.68       0.11       5.68        0.08     0.97   0.947
  SUB-832                    6.00       0.00       0.00       0.19       5.71       0.11       5.71        0.05     0.60   0.951
  SUB-834                    6.00       0.00       0.00       1.03       4.88       0.47       4.88        0.06     0.81   0.813
  SUB-836                    6.00       0.00       0.00       0.18       5.74       0.12       5.74        0.01     0.17   0.956
  SUB-838                    6.00       0.00       0.00       1.01       4.91       0.49       4.91        0.04     0.55   0.819
  SUB-84                     6.00       0.00       0.00       2.62       3.35       1.28       3.35        0.01     0.18   0.558
  SUB-840                    6.00       0.00       0.00       0.41       5.41       0.19       5.41        0.17     2.00   0.901
  SUB-842                    6.00       0.00       0.00       1.59       4.30       0.51       4.30        0.13     1.55   0.717
  SUB-844                    6.00       0.00       0.00       1.02       4.89       0.48       4.89        0.05     0.73   0.815
  SUB-846                    6.00       0.00       0.00       0.37       5.54       0.23       5.54        0.02     0.31   0.923
  SUB-848                    6.00       0.00       0.00       0.36       5.56       0.24       5.56        0.01     0.13   0.927
  SUB-850                    6.00       0.00       0.00       0.40       5.48       0.20       5.48        0.09     1.11   0.913
  SUB-852                    6.00       0.00       0.00       0.36       5.57       0.24       5.57        0.01     0.09   0.928
  SUB-854                    6.00       0.00       0.00       0.18       5.73       0.12       5.73        0.02     0.30   0.954
  SUB-856                    6.00       0.00       0.00       0.19       5.71       0.11       5.71        0.04     0.58   0.951
  SUB-858                    6.00       0.00       0.00       0.39       5.52       0.22       5.52        0.04     0.57   0.919
  SUB-86                     6.00       0.00       0.00       0.20       5.65       0.10       5.65        0.12     1.49   0.941
  SUB-860                    6.00       0.00       0.00       0.38       5.52       0.22       5.52        0.04     0.53   0.920
  SUB-862                    6.00       0.00       0.00       0.38       5.53       0.22       5.53        0.03     0.40   0.922
  SUB-864                    6.00       0.00       0.00       0.38       5.53       0.22       5.53        0.03     0.45   0.921
  SUB-866                    6.00       0.00       0.00       0.38       5.53       0.22       5.53        0.03     0.39   0.922
  SUB-868                    6.00       0.00       0.00       0.38       5.52       0.22       5.52        0.04     0.46   0.921
  SUB-870                    6.00       0.00       0.00       1.49       4.43       0.61       4.43        0.07     0.86   0.738
  SUB-872                    6.00       0.00       0.00       1.01       4.91       0.49       4.91        0.04     0.55   0.819
  SUB-874                    6.00       0.00       0.00       0.61       5.28       0.29       5.28        0.08     1.01   0.880
  SUB-876                    6.00       0.00       0.00       0.18       5.73       0.12       5.73        0.02     0.30   0.954
  SUB-878                    6.00       0.00       0.00       1.02       4.89       0.48       4.89        0.06     0.75   0.815
  SUB-88                     6.00       0.00       0.00       0.39       5.50       0.21       5.50        0.06     0.75   0.917
  SUB-880                    6.00       0.00       0.00       1.02       4.90       0.48       4.90        0.05     0.66   0.816
  SUB-882                    6.00       0.00       0.00       2.61       3.35       0.99       3.35        0.04     0.49   0.558
  SUB-884                    6.00       0.00       0.00       0.99       4.93       0.51       4.93        0.03     0.39   0.822
  SUB-886                    6.00       0.00       0.00       3.13       2.85       1.37       2.85        0.01     0.23   0.475
  SUB-888                    6.00       0.00       0.00       1.03       4.88       0.47       4.88        0.06     0.81   0.813
  SUB-890                    6.00       0.00       0.00       3.66       2.31       0.84       2.31        0.06     0.70   0.385
  SUB-892                    6.00       0.00       0.00       1.47       4.45       0.63       4.45        0.06     0.72   0.742
  SUB-894                    6.00       0.00       0.00       1.51       4.41       0.59       4.41        0.08     0.96   0.735
  SUB-896                    6.00       0.00       0.00       0.82       5.07       0.38       5.07        0.08     1.00   0.845
  SUB-898                    6.00       0.00       0.00       0.82       5.07       0.38       5.07        0.08     1.04   0.845
  SUB-90                     6.00       0.00       0.00       1.06       4.82       0.44       4.82        0.10     1.26   0.804
  SUB-900                    6.00       0.00       0.00       0.58       5.33       0.32       5.33        0.03     0.43   0.888
  SUB-902                    6.00       0.00       0.00       0.58       5.33       0.32       5.33        0.03     0.44   0.888
  SUB-904                    6.00       0.00       0.00       0.56       5.37       0.35       5.37        0.01     0.16   0.895
  SUB-906                    6.00       0.00       0.00       0.57       5.34       0.33       5.34        0.03     0.34   0.890
  SUB-908                    6.00       0.00       0.00       0.00       5.83       0.00       5.83        0.12     1.45   0.972
  SUB-910                    6.00       0.00       0.00       0.59       5.33       0.31       5.33        0.04     0.47   0.888
  SUB-912                    6.00       0.00       0.00       0.39       5.50       0.21       5.50        0.06     0.78   0.916
  SUB-914                    6.00       0.00       0.00       2.45       3.52       1.15       3.52        0.02     0.24   0.587
  SUB-916                    6.00       0.00       0.00       0.00       5.84       0.00       5.84        0.11     1.34   0.973
  SUB-918                    6.00       0.00       0.00       0.00       5.86       0.00       5.86        0.08     1.06   0.976
  SUB-92                     6.00       0.00       0.00       1.01       4.92       0.50       4.92        0.04     0.52   0.819
  SUB-920                    6.00       0.00       0.00       0.86       4.99       0.34       4.99        0.15     1.79   0.832
  SUB-922                    6.00       0.00       0.00       0.00       5.87       0.00       5.87        0.07     0.89   0.978
  SUB-924                    6.00       0.00       0.00       2.48       3.42       0.52       3.42        0.17     1.86   0.570
  SUB-926                    6.00       0.00       0.00       1.27       4.64       0.53       4.64        0.08     0.97   0.773
  SUB-928                    6.00       0.00       0.00       0.65       5.15       0.25       5.15        0.21     2.44   0.859
  SUB-930                    6.00       0.00       0.00       1.36       4.51       0.44       4.51        0.15     1.79   0.752
  SUB-932                    6.00       0.00       0.00       0.40       5.46       0.20       5.46        0.10     1.33   0.910
  SUB-934                    6.00       0.00       0.00       0.39       5.51       0.21       5.51        0.05     0.64   0.918
  SUB-936                    6.00       0.00       0.00       0.40       5.49       0.20       5.49        0.07     0.94   0.915
  SUB-938                    6.00       0.00       0.00       0.40       5.48       0.20       5.48        0.09     1.11   0.913
  SUB-94                     6.00       0.00       0.00       0.97       4.96       0.53       4.96        0.02     0.26   0.826
  SUB-940                    6.00       0.00       0.00       0.38       5.52       0.22       5.52        0.04     0.51   0.920
  SUB-942                    6.00       0.00       0.00       0.40       5.49       0.21       5.49        0.07     0.88   0.915
  SUB-944                    6.00       0.00       0.00       4.62       0.00       1.38       1.38        0.02     0.23   0.230
  SUB-946                    6.00       0.00       0.00       4.55       0.00       1.45       1.45        0.02     0.22   0.242
  SUB-948                    6.00       0.00       0.00       0.00       5.88       0.00       5.88        0.05     0.62   0.981
  SUB-950                    6.00       0.00       0.00       0.00       5.89       0.00       5.89        0.04     0.51   0.982
  SUB-952                    6.00       0.00       0.00       0.39       5.51       0.21       5.51        0.05     0.59   0.919
  SUB-954                    6.00       0.00       0.00       0.79       5.13       0.41       5.13        0.03     0.41   0.855
  SUB-956                    6.00       0.00       0.00       0.79       5.12       0.41       5.12        0.04     0.51   0.853
  SUB-958                    6.00       0.00       0.00       0.58       5.34       0.32       5.34        0.03     0.38   0.890
  SUB-96                     6.00       0.00       0.00       0.18       5.72       0.12       5.72        0.03     0.40   0.953
  SUB-960                    6.00       0.00       0.00       2.92       2.94       0.38       2.94        0.26     2.79   0.491
  SUB-962                    6.00       0.00       0.00       2.78       3.13       0.52       3.13        0.16     1.82   0.522
  SUB-964                    6.00       0.00       0.00       1.98       3.96       0.72       3.96        0.07     0.82   0.660
  SUB-966                    6.00       0.00       0.00       3.07       2.89       0.83       2.89        0.07     0.79   0.481
  SUB-968                    6.00       0.00       0.00       3.17       2.79       0.73       2.79        0.09     0.98   0.464
  SUB-970                    6.00       0.00       0.00       2.71       3.22       0.59       3.22        0.13     1.48   0.536
  SUB-972                    6.00       0.00       0.00       2.85       3.12       1.05       3.12        0.03     0.45   0.520
  SUB-974                    6.00       0.00       0.00       3.00       2.96       0.90       2.96        0.06     0.66   0.494
  SUB-976                    6.00       0.00       0.00       2.33       3.60       0.67       3.60        0.10     1.13   0.601
  SUB-978                    6.00       0.00       0.00       2.34       3.58       0.66       3.58        0.10     1.20   0.597
  SUB-98                     6.00       0.00       0.00       0.18       5.73       0.12       5.73        0.02     0.29   0.954
  SUB-980                    6.00       0.00       0.00       2.36       3.56       0.64       3.56        0.11     1.28   0.593
  SUB-982                    6.00       0.00       0.00       5.03       0.00       0.97       0.97        0.03     0.32   0.161
  SUB-984                    6.00       0.00       0.00       1.90       4.06       1.10       4.06        0.01     0.08   0.677
  SUB-986                    6.00       0.00       0.00       3.47       2.50       1.03       2.50        0.04     0.50   0.417
  SUB-988                    6.00       0.00       0.00       3.15       2.83       1.35       2.83        0.02     0.25   0.471
  SUB-990                    6.00       0.00       0.00       2.67       3.30       1.23       3.30        0.02     0.24   0.550
  SUB-992                    6.00       0.00       0.00       3.16       2.82       1.35       2.82        0.02     0.25   0.471
  SUB-994                    6.00       0.00       0.00       3.18       2.80       1.33       2.80        0.02     0.27   0.467
  SUB-996                    6.00       0.00       0.00       3.03       2.95       1.47       2.95        0.01     0.15   0.492
  SUB-998                    6.00       0.00       0.00       3.13       2.85       1.37       2.85        0.01     0.23   0.475
  
  
  ****************************
  Subcatchment Washoff Summary
  ****************************
  
  ----------------------------------
                          POLLUTNT-1
  Subcatchment                   lbs
  ----------------------------------
  SUB-10                       0.000
  SUB-100                      0.000
  SUB-1000                     0.000
  SUB-1002                     0.000
  SUB-1004                     0.000
  SUB-1006                     0.000
  SUB-1008                     0.000
  SUB-1010                     0.000
  SUB-1012                     0.000
  SUB-1014                     0.000
  SUB-1016                     0.000
  SUB-1018                     0.000
  SUB-102                      0.000
  SUB-1020                     0.000
  SUB-1022                     0.000
  SUB-1024                     0.000
  SUB-1026                     0.000
  SUB-1028                     0.000
  SUB-1030                     0.000
  SUB-1032                     0.000
  SUB-1034                     0.000
  SUB-1036                     0.000
  SUB-1038                     0.000
  SUB-104                      0.000
  SUB-1040                     0.000
  SUB-1042                     0.000
  SUB-1044                     0.000
  SUB-1046                     0.000
  SUB-1048                     0.000
  SUB-1050                     0.000
  SUB-1052                     0.000
  SUB-1054                     0.000
  SUB-1056                     0.000
  SUB-1058                     0.000
  SUB-106                      0.000
  SUB-1060                     0.000
  SUB-1062                     0.000
  SUB-1064                     0.000
  SUB-108                      0.000
  SUB-110                      0.000
  SUB-112                      0.000
  SUB-114                      0.000
  SUB-116                      0.000
  SUB-118                      0.000
  SUB-12                       0.000
  SUB-120                      0.000
  SUB-122                      0.000
  SUB-124                      0.000
  SUB-126                      0.000
  SUB-128                      0.000
  SUB-130                      0.000
  SUB-132                      0.000
  SUB-134                      0.000
  SUB-136                      0.000
  SUB-138                      0.000
  SUB-14                       0.000
  SUB-140                      0.000
  SUB-142                      0.000
  SUB-144                      0.000
  SUB-146                      0.000
  SUB-148                      0.000
  SUB-150                      0.000
  SUB-152                      0.000
  SUB-154                      0.000
  SUB-156                      0.000
  SUB-158                      0.000
  SUB-16                       0.000
  SUB-160                      0.000
  SUB-162                      0.000
  SUB-164                      0.000
  SUB-166                      0.000
  SUB-168                      0.000
  SUB-170                      0.000
  SUB-172                      0.000
  SUB-174                      0.000
  SUB-176                      0.000
  SUB-178                      0.000
  SUB-18                       0.000
  SUB-180                      0.000
  SUB-182                      0.000
  SUB-184                      0.000
  SUB-186                      0.000
  SUB-188                      0.000
  SUB-190                      0.000
  SUB-192                      0.000
  SUB-194                      0.000
  SUB-196                      0.000
  SUB-198                      0.000
  SUB-20                       0.000
  SUB-200                      0.000
  SUB-202                      0.000
  SUB-204                      0.000
  SUB-206                      0.000
  SUB-208                      0.000
  SUB-210                      0.000
  SUB-212                      0.000
  SUB-214                      0.000
  SUB-216                      0.000
  SUB-218                      0.000
  SUB-22                       0.000
  SUB-220                      0.000
  SUB-222                      0.000
  SUB-224                      0.000
  SUB-226                      0.000
  SUB-228                      0.000
  SUB-230                      0.000
  SUB-232                      0.000
  SUB-234                      0.000
  SUB-236                      0.000
  SUB-238                      0.000
  SUB-24                       0.000
  SUB-240                      0.000
  SUB-242                      0.000
  SUB-244                      0.000
  SUB-246                      0.000
  SUB-248                      0.000
  SUB-250                      0.000
  SUB-252                      0.000
  SUB-254                      0.000
  SUB-256                      0.000
  SUB-258                      0.000
  SUB-26                       0.000
  SUB-260                      0.000
  SUB-262                      0.000
  SUB-264                      0.000
  SUB-266                      0.000
  SUB-268                      0.000
  SUB-270                      0.000
[...]
  G152356-G152351              0.000
  G152361-G157309              0.000
  G152362-G152361              0.000
  G152363-G152361              0.000
  G152364-G152363              0.000
  G152365-G152364              0.000
  G152366-G152364              0.000
  G152367-G152366              0.000
  G152368-G152367              0.000
  G152481-G152363              0.000
  G152482-G152363              0.000
  G152483-G152482              0.000
  G152484-G152483              0.000
  G152485-G152482              0.000
  G152486-G152485              0.000
  G152487-G152486              0.000
  G152488-G152487              0.000
  G152489-G152488              0.000
  G152490-G152489              0.000
  G152493-G152490              0.000
  G152494-G152493              0.000
  G152495-G152493              0.000
  G152497-G152495              0.000
  G152499-G152497              0.000
  G152500-G152485              0.000
  G152501-G152500              0.000
  G152502-G152501              0.000
  G152503-G152501              0.000
  G152504-G152485              0.000
  G152505-G152504              0.000
  G152506-G152505              0.000
  G152507-G152506              0.000
  G152508-G152505              0.000
  G152510-G152505              0.000
  G152512-G152510              0.000
  G152514-G152512              0.000
  G152515-G152512              0.000
  G152516-G152515              0.000
  G152517-G152516              0.000
  G152518-G152515              0.000
  G152519-G152518              0.000
  G152520-G152518              0.000
  G152521-G152520              0.000
  G152522-G152520              0.000
  G152523-G152522              0.000
  G152525-G152523              0.000
  G152526-G152525              0.000
  G152527-G152525              0.000
  G152530-G152522              0.000
  G152534-G152530              0.000
  G152535-G152534              0.000
  G152536-G152535              0.000
  G152538-G152482              0.000
  G152539-G152538              0.000
  G152540-G152539              0.000
  G152541-G152539              0.000
  G152542-G152539              0.000
  G152543-G152542              0.000
  G152544-G152543              0.000
  G152545-G152544              0.000
  G152546-G152545              0.000
  G152547-G152545              0.000
  G152548-G152547              0.000
  G152552-G152543              0.000
  G152553-G152552              0.000
  G152555-G1573093             0.000
  G157300-G152316              0.000
  G157301-G152316              0.000
  G157304-G157305              0.000
  G157305-G157309              0.000
  G157306-G157305              0.000
  G157307-G157306              0.000
  G157308-G157307              0.000
  G157309-G152357              0.000
  G157309-G1573160             0.000
  G1573091-G152337             0.000
  G1573092-H153452             0.000
  G1573093-G1573094            0.000
  G1573094-H16969              0.000
  G1573095-G1573097            0.000
  G1573097-G1573099            0.000
  G1573099-G1573100            0.000
  G157310-G152357              0.000
  G1573100-G1573102            0.000
  G1573102-G1573111            0.000
  G1573104-G1573102            0.000
  G1573106-G1573105            0.000
  G1573107-G1573106            0.000
  G1573108-G1573107            0.000
  G1573109-G1573108            0.000
  G1573110-G1573105            0.000
  G1573111-G1573110            0.000
  G1573112-G1573111            0.000
  G1573113-G1573112            0.000
  G1573114-G1573113            0.000
  G1573114-G1573119            0.000
  G1573115-G1573116            0.000
  G1573115-G1573120            0.000
  G1573117-G1573116            0.000
  G1573118-G1573117            0.000
  G1573119-G1573120            0.000
  G1573120-G1573121            0.000
  G1573123-G1573133            0.000
  G1573124-G1573137            0.000
  G1573126-G152146             0.000
  G1573128-G1573129            0.000
  G1573129-G1573130            0.000
  G1573129-G1573131            0.000
  G1573130-G1573132            0.000
  G1573131-G1573132            0.000
  G1573132-G152146             0.000
  G1573133-G1573134            0.000
  G1573134-G1573135            0.000
  G1573135-G1573194            0.000
  G1573136-G152298             0.000
  G1573137-G152185             0.000
  G1573139-G152338             0.000
  G1573140-G1573139            0.000
  G1573141-G1573163            0.000
  G1573142-G152051             0.000
  G1573143-G1573144            0.000
  G1573144-G1573145            0.000
  G1573145-G1573146            0.000
  G1573146-G152201             0.000
  G1573147-G1573148            0.000
  G1573148-G1573149            0.000
  G1573149-G152193             0.000
  G1573150-G152253             0.000
  G1573151-G152253             0.000
  G1573152-G1573145            0.000
  G1573153-G1573160            0.000
  G1573154-G1573097            0.000
  G1573156-G1573157            0.000
  G1573157-G1573190            0.000
  G1573158-G142580             0.000
  G1573160-G152356             0.000
  G1573162-G152353             0.000
  G1573163-G152335             0.000
  G1573164-G152340             0.000
  G1573165-G1573166            0.000
  G1573166-G1573167            0.000
  G1573167-G1573168            0.000
  G1573168-G1573169            0.000
  G1573169-G152321             0.000
  G1573170-G152322             0.000
  G1573171-G1573170            0.000
  G1573172-G1522891            0.000
  G1573173-G1522891A           0.000
  G1573174-G152299             0.000
  G1573175-G1573176            0.000
  G1573176-G1573177            0.000
  G1573177-G152303             0.000
  G1573178-G157301             0.000
  G1573179-G152249             0.000
  G1573180-G1573179            0.000
  G1573181-G1573180            0.000
  G1573182-G1573180            0.000
  G1573183-G1573182            0.000
  G1573184-G1573185            0.000
  G1573185-G1573187            0.000
  G1573186-G1573187            0.000
  G1573187-G1573188            0.000
  G1573188-G152248             0.000
  G1573188-G1573179            0.000
  G1573189-G152246             0.000
  G1573190-G152247             0.000
  G1573191-G152239             0.000
  G1573192-G1573193            0.000
  G1573193-G152223             0.000
  G1573194-G152183             0.000
  H142407-H152405              0.000
  H142408-H142407              0.000
  H142409-H142407              0.000
  H142409-H142411              0.000
  H142410-H142409              0.000
  H142412-H142411              0.000
  H142413-H142411              0.000
  H142446-H143464              0.000
  H142447-H142446              0.000
  H142448-H142446              0.000
  H142449-H142448              0.000
  H142450-H142448              0.000
  H142451-H142450              0.000
  H142464-H152462              0.000
  H142465-H142464              0.000
  H142466-H142465              0.000
  H142467-H142464              0.000
  H142468-H142467              0.000
  H142469-H142468              0.000
  H142573-H152572              0.000
  H142574-H142573              0.000
  H142575-H142573              0.000
  H142576-H142573              0.000
  H142577-H142576              0.000
  H142578-H142576              0.000
  H142583-G142581              0.000
  H142584-H142583              0.000
  H142627-G142610              0.000
  H142633-H142627              0.000
  H142634-H142633              0.000
  H142636-H142633              0.000
  H142637-H142636              0.000
  H142638-H142637              0.000
  H142639-H142633              0.000
  H142640-H142639              0.000
  H142641-H142639              0.000
  H142642-H142641              0.000
  H143445-H153446              0.000
  H143449-G143208              0.000
  H143451-G143212              0.000
  H143452-H143453              0.000
  H143453-H143454              0.000
  H143454-H143455              0.000
  H143455-G143212              0.000
  H143456-H143455              0.000
  H143457-H142634              0.000
  H143458-H142634              0.000
  H143459-H143460              0.000
  H143460-H142584              0.000
  H143461-H143462              0.000
  H143461-H152566              0.000
  H143462-H143463              0.000
  H143463-H143450              0.000
  H143464-H152444              0.000
  H152023-H153447              0.000
  H152024-H152023              0.000
  H152025-H152024              0.000
  H152026-H152025              0.000
  H152027-H152026              0.000
  H152028-H152025              0.000
  H152030-H152028              0.000
  H152031-H152030              0.000
  H152033-H152028              0.000
  H152034-H152033              0.000
  H152035-H152034              0.000
  H152036-H152035              0.000
  H152037-H152036              0.000
  H152038-H152044              0.000
  H152039-H152036              0.000
  H152044-H152042              0.000
  H152045-H152038              0.000
  H152060-H152056              0.000
  H152061-H153460              0.000
  H152063-H152061              0.000
  H152065-H152063              0.000
  H152067-H152065              0.000
  H152068-H152065              0.000
  H152069-H152068              0.000
  H152071-H152070              0.000
  H152072-H152071              0.000
  H152073-H152072              0.000
  H152074-H152072              0.000
  H152075-H152074              0.000
  H152076-H152074              0.000
  H152080-H152076              0.000
  H152082-H152080              0.000
  H152084-H152080              0.000
  H152085-H152084              0.000
  H152086-H152072              0.000
  H152089-H152086              0.000
  H152090-H152089              0.000
  H152091-H152089              0.000
  H152092-H152089              0.000
  H152093-H152092              0.000
  H152094-H152092              0.000
  H152097-H152094              0.000
  H152099-H152097              0.000
  H152100-H152089              0.000
  H152101-H152100              0.000
  H152102-H152101              0.000
  H152104-H152100              0.000
  H152106-H152105              0.000
  H152107-H152104              0.000
  H152109-H152107              0.000
  H152110-H152109              0.000
  H152111-H152110              0.000
  H152120-H152110              0.000
  H152150-H152038              0.000
  H152198-H153466              0.000
  H152199-H152198              0.000
  H152200-H152199              0.000
  H152260-H153536              0.000
  H152261-H152260              0.000
  H152262-H152261              0.000
  H152264-H152262              0.000
  H152267-H152261              0.000
  H152268-H152267              0.000
  H152270-H152267              0.000
  H152270-H152272              0.000
  H152272-H152278              0.000
  H152273-H152272              0.000
  H152274-H152273              0.000
  H152277-H152272              0.000
  H152279-H152278              0.000
  H152280-H152278              0.000
  H152281-H152280              0.000
  H152282-H152280              0.000
  H152282-H152283              0.000
  H152284-H152282              0.000
  H152285-H152284              0.000
  H152286-H152285              0.000
  H152370-G152364              0.000
  H152371-H152370              0.000
  H152372-H152370              0.000
  H152373-H152372              0.000
  H152374-H152373              0.000
  H152376-H152374              0.000
  H152377-H152376              0.000
  H152378-H152376              0.000
  H152379-H152370              0.000
  H152380-H152379              0.000
  H152381-H152380              0.000
  H152382-H152381              0.000
  H152383-H152382              0.000
  H152384-H152383              0.000
  H152385-H152380              0.000
  H152386-H152385              0.000
  H152387-H152386              0.000
  H152388-H152387              0.000
  H152390-H152387              0.000
  H152391-H152390              0.000
  H152392-H152391              0.000
  H152393-H152391              0.000
  H152394-H152380              0.000
  H152395-H152394              0.000
  H152396-H152394              0.000
  H152397-H152396              0.000
  H152398-H152397              0.000
  H152399-H152398              0.000
  H152400-H152394              0.000
  H152401-H152400              0.000
  H152402-H152401              0.000
  H152403-H152400              0.000
  H152404-H152403              0.000
  H152405-H152400              0.000
  H152406-H152405              0.000
  H152414-H152405              0.000
  H152415-H152414              0.000
  H152416-H152414              0.000
  H152417-H152416              0.000
  H152418-H152417              0.000
  H152419-H152417              0.000
  H152420-H152419              0.000
  H152421-H152416              0.000
  H152422-H152421              0.000
  H152423-H152421              0.000
  H152424-H152423              0.000
  H152425-H152424              0.000
  H152426-H152421              0.000
  H152427-H152426              0.000
  H152428-H152426              0.000
  H152429-H152428              0.000
  H152430-H152426              0.000
  H152431-H152430              0.000
  H152432-H152430              0.000
  H152433-H152432              0.000
  H152434-H152433              0.000
  H152435-H152430              0.000
  H152436-H152435              0.000
  H152437-H152435              0.000
  H152438-H152435              0.000
  H152439-H152438              0.000
  H152440-H152439              0.000
  H152441-H152439              0.000
  H152442-H152441              0.000
  H152443-H152439              0.000
  H152444-H152443              0.000
  H152445-H152444              0.000
  H152452-H152435              0.000
  H152453-H152452              0.000
  H152454-H152452              0.000
  H152454-H152456              0.000
  H152454-H152457              0.000
  H152458-H152454              0.000
  H152459-H152458              0.000
  H152460-H152459              0.000
  H152461-H152460              0.000
  H152462-H152460              0.000
  H152463-H152462              0.000
  H152555-G152553              0.000
  H152556-H152555              0.000
  H152558-H152556              0.000
  H152559-H152558              0.000
  H152560-H152559              0.000
  H152561-H152559              0.000
  H152562-H152561              0.000
  H152563-H152561              0.000
  H152564-H152563              0.000
  H152565-H152564              0.000
  H152566-H152564              0.000
  H152568-H152563              0.000
  H152569-H152568              0.000
  H152570-H152569              0.000
  H152571-H152569              0.000
  H152572-H152571              0.000
  H153446-H152429              0.000
  H153448-G157304              0.000
  H153453-G1573122             0.000
  H153454-H153453              0.000
  H153455-H153454              0.000
  H153458-H153459              0.000
  H153459-H152067              0.000
  H153460-H153555              0.000
  H153461-H153551              0.000
  H153462-H153463              0.000
  H153463-H153465              0.000
  H153464-H152393              0.000
  H153465-H153464              0.000
  H153466-G152051              0.000
  H153467-H153468              0.000
  H153468-H153469              0.000
  H153469-H153481              0.000
  H153470-H153497              0.000
  H153471-H153489              0.000
  H153472-H153473              0.000
  H153473-H153474              0.000
  H153474-H153475              0.000
  H153475-H153476              0.000
  H153476-H153500              0.000
  H153477-H153478              0.000
  H153478-H153490              0.000
  H153480-H153486              0.000
  H153481-H153482              0.000
  H153482-H153483              0.000
  H153483-H153484              0.000
  H153484-H153491              0.000
  H153485-H153480              0.000
  H153486-H153487              0.000
  H153487-H153488              0.000
  H153488-H153470              0.000
  H153489-H153472              0.000
  H153490-H153480              0.000
  H153491-H153475              0.000
  H153493-H153487              0.000
  H153494-H153493              0.000
  H153495-H153496              0.000
  H153496-H153488              0.000
  H153497-H153498              0.000
  H153498-H153526              0.000
  H153499-H153497              0.000
  H153500-H153503              0.000
  H153501-H153502              0.000
  H153502-H153503              0.000
  H153503-H152111              0.000
  H153504-H152111              0.000
  H153505-H153499              0.000
  H153507-H153514              0.000
  H153508-H153507              0.000
  H153509-H153508              0.000
  H153510-H153511              0.000
  H153511-H153515              0.000
  H153513-H153514              0.000
  H153514-H153515              0.000
  H153515-H153516              0.000
  H153516-H153520              0.000
  H153517-H153518              0.000
  H153518-H153519              0.000
  H153519-H153520              0.000
  H153520-H153522              0.000
  H153521-H153522              0.000
  H153522-H153504              0.000
  H153524-H153519              0.000
  H153525-H152102              0.000
  H153526-H152100              0.000
  H153527-H153528              0.000
  H153528-H152034              0.000
  H153529-H152025              0.000
  H153530-H153531              0.000
  H153531-H152025              0.000
  H153532-H153531              0.000
  H153535-H153532              0.000
  H153536-G1573143             0.000
  H153537-H153587              0.000
  H153538-H153587              0.000
  H153539-H152034              0.000
  H153539-H153541              0.000
  H153540-H153539              0.000
  H153542-H153541              0.000
  H153542-H153543              0.000
  H153544-H153539              0.000
  H153545-H153544              0.000
  H153546-H153545              0.000
  H153547-H153544              0.000
  H153548-H153550              0.000
  H153549-H153545              0.000
  H153549-H153550              0.000
  H153551-H153550              0.000
  H153552-H153551              0.000
  H153553-H153551              0.000
  H153554-H153553              0.000
  H153555-H153556              0.000
  H153556-H153557              0.000
  H153557-H153558              0.000
  H153558-H153559              0.000
  H153559-H153560              0.000
  H153560-H153561              0.000
  H153561-H153563              0.000
  H153562-H153563              0.000
  H153563-H153565              0.000
  H153564-H153565              0.000
  H153565-H153549              0.000
  H153566-H153560              0.000
  H153567-H153566              0.000
  H153568-H153571              0.000
  H153570-H153569              0.000
  H153571-H153572              0.000
  H153573-H153570              0.000
  H153574-H153575              0.000
  H153575-H153582              0.000
  H153576-H153577              0.000
  H153577-H153581              0.000
  H153578-H153577              0.000
  H153579-H153580              0.000
  H153580-H153578              0.000
  H153581-H153582              0.000
  H153582-H153568              0.000
  H153583-H153569              0.000
  H153584-H153579              0.000
  H153586-H152452              0.000
  H153587-H153448              0.000
  H153588-H152279              0.000
  H153589-H152277              0.000
  H153590-H152262              0.000
  H153591-H153535              0.000
  H16969-OUTFALL1              0.000
  I152470-H152458              0.000
  I152471-I152470              0.000
  I152472-I152470              0.000
  I152473-I152470              0.000
  I152474-I152473              0.000
  I152475-I152474              0.000
  I152476-I152475              0.000
  I152477-I152475              0.000
  I152478-I152477              0.000
  I152479-I152474              0.000
  I152480-I152479              0.000
  I154973-I152470              0.000
  

  Analysis begun on:  Wed Jun 24 08:12:59 2026
  Analysis ended on:  Wed Jun 24 08:13:09 2026
  Total elapsed time: 00:00:10