
  EPA STORM WATER MANAGEMENT MODEL - VERSION 5.2 (Build 5.2.4)
  ------------------------------------------------------------

  WARNING 03: negative offset ignored for Link CDT-859
  WARNING 03: negative offset ignored for Link CDT-923
  WARNING 03: negative offset ignored for Link CDT-983
  WARNING 04: minimum elevation drop used for Conduit DID7697
  WARNING 04: minimum elevation drop used for Conduit DID7929
  WARNING 04: minimum elevation drop used for Conduit DID7933
  WARNING 04: minimum elevation drop used for Conduit DID8162
  WARNING 04: minimum elevation drop used for Conduit DID8246
  WARNING 04: minimum elevation drop used for Conduit EASTM-1L1
  WARNING 04: minimum elevation drop used for Conduit EASTM-32L1
  WARNING 04: minimum elevation drop used for Conduit L-SS01
  WARNING 04: minimum elevation drop used for Conduit L-SS02
  WARNING 04: minimum elevation drop used for Conduit L-SS03
  WARNING 04: minimum elevation drop used for Conduit L-SS04
  WARNING 04: minimum elevation drop used for Conduit L-SS05
  WARNING 04: minimum elevation drop used for Conduit L-SS06
  WARNING 04: minimum elevation drop used for Conduit NID2744
  WARNING 08: elevation drop exceeds length for Conduit SML0585C08
  WARNING 03: negative offset ignored for Link SML0585D0A
  WARNING 04: minimum elevation drop used for Conduit SML1184A05
  WARNING 04: minimum elevation drop used for Conduit SML1184H04
  WARNING 04: minimum elevation drop used for Conduit SML1184S04
  WARNING 04: minimum elevation drop used for Conduit SML1284J09
  WARNING 08: elevation drop exceeds length for Conduit SML1284K13
  WARNING 04: minimum elevation drop used for Conduit SML1384A13
  WARNING 04: minimum elevation drop used for Conduit SML1384A16
  WARNING 04: minimum elevation drop used for Conduit SML1384D05
  WARNING 04: minimum elevation drop used for Conduit SML1384S26
  WARNING 04: minimum elevation drop used for Conduit SML1384Z09
  WARNING 04: minimum elevation drop used for Conduit SML1885Q02
  WARNING 04: minimum elevation drop used for Conduit SML1885U05
  WARNING 04: minimum elevation drop used for Conduit SML1885V02
  WARNING 04: minimum elevation drop used for Conduit SML2085V20
  WARNING 04: minimum elevation drop used for Conduit SML2185Y01
  WARNING 08: elevation drop exceeds length for Conduit SML2594R04_B
  WARNING 04: minimum elevation drop used for Conduit SML3494Q10
  WARNING 03: negative offset ignored for Link SML3694W02
  
  ****************
  Analysis Options
  ****************
  Flow Units ............... CFS
  Process Models:
    Rainfall/Runoff ........ NO
    RDII ................... YES
    Snowmelt ............... NO
    Groundwater ............ NO
    Flow Routing ........... YES
    Ponding Allowed ........ NO
    Water Quality .......... NO
  Infiltration Method ...... HORTON
  Flow Routing Method ...... KINWAVE
  Starting Date ............ 01/01/2002 00:00:00
  Ending Date .............. 01/01/2002 06:00:00
  Antecedent Dry Days ...... 5.0
  Report Time Step ......... 00:05:00
  Wet Time Step ............ 00:05:00
  Dry Time Step ............ 01:00:00
  Routing Time Step ........ 60.00 sec
  
  
  ERROR 133: Node JCT-120 has more than one outlet link.
  
  ERROR 133: Node NID4626 has more than one outlet link.
  
  ERROR 133: Node NID8169 has more than one outlet link.
  
  ERROR 133: Node SMH0184Q15 has more than one outlet link.
  
  ERROR 133: Node SMH0184S03 has more than one outlet link.
  
  ERROR 133: Node SMH0184Z01 has more than one outlet link.
  
  ERROR 133: Node SMH0384G06 has more than one outlet link.
  
  ERROR 133: Node SMH0585M02 has more than one outlet link.
  
  ERROR 133: Node SMH0585M14 has more than one outlet link.
  
  ERROR 133: Node SMH0585M15 has more than one outlet link.
  
  ERROR 133: Node SMH0685V06 has more than one outlet link.
  
  ERROR 133: Node SMH0685Y02 has more than one outlet link.
  
  ERROR 133: Node SMH0885F21 has more than one outlet link.
  
  ERROR 133: Node SMH0885M18 has more than one outlet link.
  
  ERROR 133: Node SMH1985F01 has more than one outlet link.
  
  ERROR 133: Node SMH1985Y01 has more than one outlet link.
  
  ERROR 133: Node SMH3494T15 has more than one outlet link.
  
  ERROR 133: Node SMH3694R08 has more than one outlet link.
  
  ERROR 133: Node SMH3694R09 has more than one outlet link.
  
  ERROR 133: Node SMH3694V03 has more than one outlet link.
  
  ERROR 115: adverse slope for Conduit 4327L1.
  
  ERROR 115: adverse slope for Conduit CDT-983.
  
  ERROR 115: adverse slope for Conduit DID7933.
  
  ERROR 115: adverse slope for Conduit DID8162.
  
  ERROR 115: adverse slope for Conduit DID8246.
  
  ERROR 115: adverse slope for Conduit DS_NEWLSL1.
  
  ERROR 115: adverse slope for Conduit LS36-NEWFM.
  
  ERROR 115: adverse slope for Conduit NID4436L1.
  
  ERROR 115: adverse slope for Conduit NID448L1.
  
  ERROR 115: adverse slope for Conduit NID4869L1.
  
  ERROR 115: adverse slope for Conduit SMH3594L16L1.
  
  ERROR 115: adverse slope for Conduit SML0184R4A.
  
  ERROR 115: adverse slope for Conduit SML0585G17.
  
  ERROR 115: adverse slope for Conduit SML0585G18.
  
  ERROR 115: adverse slope for Conduit SML0585M0C.
  
  ERROR 115: adverse slope for Conduit SML0585M0D.
  
  ERROR 115: adverse slope for Conduit SML0785L04.
  
  ERROR 115: adverse slope for Conduit SML0885F26.
  
  ERROR 115: adverse slope for Conduit SML0885M18.
  
  ERROR 115: adverse slope for Conduit SML1184A05.
  
  ERROR 115: adverse slope for Conduit SML1184H04.
  
  ERROR 115: adverse slope for Conduit SML1184K04.
  
  ERROR 115: adverse slope for Conduit SML1184K05.
  
  ERROR 115: adverse slope for Conduit SML1184S04.
  
  ERROR 115: adverse slope for Conduit SML1284K13.
  
  ERROR 115: adverse slope for Conduit SML1384D05.
  
  ERROR 115: adverse slope for Conduit SML1484C09.
  
  ERROR 115: adverse slope for Conduit SML1885V02.
  
  ERROR 115: adverse slope for Conduit SML1885Y02.
  
  ERROR 115: adverse slope for Conduit SML1985G04.
  
  ERROR 115: adverse slope for Conduit SML1985Y04.
  
  ERROR 115: adverse slope for Conduit SML3085E04.
  
  ERROR 115: adverse slope for Conduit SML3085J24.
  
  ERROR 115: adverse slope for Conduit SML3295T04.
  
  ERROR 115: adverse slope for Conduit SML3494T0A.
  
  ERROR 115: adverse slope for Conduit SML3494X2A.
  
  ERROR 139: Regulator R_LS01 is the outlet of a non-storage node.

  Analysis begun on:  Wed Jun 24 08:13:54 2026
  Analysis ended on:  Wed Jun 24 08:13:55 2026
  Total elapsed time: 00:00:01