
  EPA STORM WATER MANAGEMENT MODEL - VERSION 5.2 (Build 5.2.4)
  ------------------------------------------------------------

  WARNING 04: minimum elevation drop used for Conduit 0010010234.1
  WARNING 04: minimum elevation drop used for Conduit 001004006A.1
  WARNING 04: minimum elevation drop used for Conduit 0010050091.1
  WARNING 04: minimum elevation drop used for Conduit 0010060004.1
  WARNING 04: minimum elevation drop used for Conduit 0010070087.1
  WARNING 04: minimum elevation drop used for Conduit 0020010027.1
  WARNING 04: minimum elevation drop used for Conduit 0030010070.1
  WARNING 04: minimum elevation drop used for Conduit 0030010124.1
  WARNING 04: minimum elevation drop used for Conduit 0030010137.1
  WARNING 04: minimum elevation drop used for Conduit 0030010138.1
  WARNING 04: minimum elevation drop used for Conduit 0030010139.1
  WARNING 04: minimum elevation drop used for Conduit 0030010139.2
  WARNING 04: minimum elevation drop used for Conduit 0030010140.1
  WARNING 04: minimum elevation drop used for Conduit 0030040002.1
  WARNING 04: minimum elevation drop used for Conduit 0030040004.1
  WARNING 04: minimum elevation drop used for Conduit 0030040007.1
  WARNING 04: minimum elevation drop used for Conduit 0030040011.1
  WARNING 04: minimum elevation drop used for Conduit 0030040012.1
  WARNING 04: minimum elevation drop used for Conduit 0030040013.1
  WARNING 04: minimum elevation drop used for Conduit 0030040021.1
  WARNING 04: minimum elevation drop used for Conduit 0030080002.1
  WARNING 04: minimum elevation drop used for Conduit 0030080003.1
  WARNING 04: minimum elevation drop used for Conduit 003008008A.1
  WARNING 04: minimum elevation drop used for Conduit 0050010009.1
  WARNING 04: minimum elevation drop used for Conduit 0050020041.1
  WARNING 04: minimum elevation drop used for Conduit 1150020009.1
  
  ****************
  Analysis Options
  ****************
  Flow Units ............... MGD
  Process Models:
    Rainfall/Runoff ........ YES
    RDII ................... NO
    Snowmelt ............... NO
    Groundwater ............ NO
    Flow Routing ........... YES
    Ponding Allowed ........ NO
    Water Quality .......... NO
  Infiltration Method ...... HORTON
  Flow Routing Method ...... DYNWAVE
  Surcharge Method ......... EXTRAN
  Starting Date ............ 03/06/2008 00:00:00
  Ending Date .............. 03/07/2008 00:00:00
  Antecedent Dry Days ...... 0.0
  Report Time Step ......... 00:05:00
  Wet Time Step ............ 00:05:00
  Dry Time Step ............ 01:00:00
  Routing Time Step ........ 5.00 sec
  Variable Time Step ....... YES
  Maximum Trials ........... 8
  Number of Threads ........ 1
  Head Tolerance ........... 0.005000 ft
  
  
  **************************        Volume         Depth
  Runoff Quantity Continuity     acre-feet        inches
  **************************     ---------       -------
  Total Precipitation ......        36.406         5.988
  Evaporation Loss .........         0.000         0.000
  Infiltration Loss ........        12.196         2.006
  Surface Runoff ...........        24.139         3.970
  Final Storage ............         0.160         0.026
  Continuity Error (%) .....        -0.247
  
  
  **************************        Volume        Volume
  Flow Routing Continuity        acre-feet      10^6 gal
  **************************     ---------     ---------
  Dry Weather Inflow .......        29.364         9.569
  Wet Weather Inflow .......        24.126         7.862
  Groundwater Inflow .......         0.000         0.000
  RDII Inflow ..............         0.000         0.000
  External Inflow ..........        10.820         3.526
  External Outflow .........        54.040        17.610
  Flooding Loss ............         4.792         1.562
  Evaporation Loss .........         0.000         0.000
  Exfiltration Loss ........         0.000         0.000
  Initial Stored Volume ....         0.000         0.000
  Final Stored Volume ......         4.107         1.338
  Continuity Error (%) .....         2.133
  
  
  *************************
  Highest Continuity Errors
  *************************
  Node 0010040009 (80.89%)
  Node 0010040008 (60.86%)
  Node 0010010237 (26.70%)
  Node EC8 (23.41%)
  Node LS115FM (15.17%)
  
  
  ***************************
  Time-Step Critical Elements
  ***************************
  Link 0010010002.1 (60.80%)
  Link 0010010008.1 (29.40%)
  Link 0030010020.1 (5.67%)
  
  
  ********************************
  Highest Flow Instability Indexes
  ********************************
  Link 0050060028.1 (101)
  Link 0030080003.1 (63)
  Link 0020010019.1 (55)
  Link 0030080004.1 (54)
  Link 0050060026.1 (54)
  
  
  *********************************
  Most Frequent Nonconverging Nodes
  *********************************
  Node LS001FM249_1 (43.41%)
  Node LS002FM249_1 (43.41%)
  Node LS003FM249_1 (43.41%)
  Node LS007FM249_1 (43.41%)
  Node LS001FM249_2 (43.41%)
  
  
  *************************
  Routing Time Step Summary
  *************************
  Minimum Time Step           :     0.34 sec
  Average Time Step           :     0.61 sec
  Maximum Time Step           :     5.00 sec
  % of Time in Steady State   :     0.00
  Average Iterations per Step :     6.18
  % of Steps Not Converging   :    43.41
  Time Step Frequencies       :
      5.000 -  3.155 sec      :     0.09 %
      3.155 -  1.991 sec      :     0.06 %
      1.991 -  1.256 sec      :     0.76 %
      1.256 -  0.792 sec      :     2.16 %
      0.792 -  0.500 sec      :    96.93 %
  
  
  ***************************
  Subcatchment Runoff Summary
  ***************************
  
  ------------------------------------------------------------------------------------------------------------------------------
                            Total      Total      Total      Total     Imperv       Perv      Total       Total     Peak  Runoff
                           Precip      Runon       Evap      Infil     Runoff     Runoff     Runoff      Runoff   Runoff   Coeff
  Subcatchment                 in         in         in         in         in         in         in    10^6 gal      MGD
  ------------------------------------------------------------------------------------------------------------------------------
  001051                     5.99       0.00       0.00       1.40       4.57       0.01       4.58        0.23     6.15   0.764
  001052                     5.99       0.00       0.00       1.81       4.16       0.01       4.18        0.06     1.68   0.697
  00110                      5.99       0.00       0.00       2.08       3.80       0.10       3.90        0.14     4.20   0.652
  00114                      5.99       0.00       0.00       1.01       4.94       0.01       4.95        0.08     2.20   0.827
  00115                      5.99       0.00       0.00       1.95       3.85       0.21       4.05        0.25     7.85   0.677
  001251                     5.99       0.00       0.00       2.36       3.61       0.01       3.61        0.42    11.51   0.604
  001252                     5.99       0.00       0.00       2.36       3.61       0.00       3.61        0.25     6.85   0.603
  00130                      5.99       0.00       0.00       1.69       4.26       0.02       4.28        0.54    15.06   0.714
  001311                     5.99       0.00       0.00       1.28       4.67       0.01       4.69        0.65    17.91   0.783
  001312                     5.99       0.00       0.00       0.45       5.50       0.01       5.51        0.42    11.37   0.920
  00134                      5.99       0.00       0.00       2.59       3.38       0.01       3.39        0.83    22.76   0.566
  00135                      5.99       0.00       0.00       2.64       3.33       0.01       3.33        0.25     6.73   0.557
  00136                      5.99       0.00       0.00       2.74       3.22       0.02       3.25        0.57    16.15   0.542
  001371                     5.99       0.00       0.00       2.06       3.90       0.02       3.92        0.62    17.36   0.654
  001372                     5.99       0.00       0.00       2.06       3.90       0.02       3.91        0.23     6.28   0.654
  00140                      5.99       0.00       0.00       1.06       4.89       0.01       4.90        0.08     2.16   0.818
  00141                      5.99       0.00       0.00       1.20       4.75       0.01       4.76        0.09     2.55   0.795
  002051                     5.99       0.00       0.00       2.43       3.30       0.28       3.58        0.08     2.75   0.598
  002052                     5.99       0.00       0.00       2.38       3.35       0.27       3.63        0.04     1.25   0.606
  00210                      5.99       0.00       0.00       2.13       3.83       0.01       3.84        0.07     1.97   0.642
  00215                      5.99       0.00       0.00       1.21       4.73       0.02       4.75        0.09     2.51   0.793
  00305                      5.99       0.00       0.00       2.42       3.47       0.11       3.58        0.17     5.44   0.598
  00309                      5.99       0.00       0.00       1.17       4.76       0.04       4.80        0.05     1.47   0.802
  00310                      5.99       0.00       0.00       1.88       4.02       0.07       4.10        0.17     4.95   0.684
  00311                      5.99       0.00       0.00       2.08       3.64       0.28       3.92        0.41    13.67   0.654
  003151                     5.99       0.00       0.00       2.82       3.15       0.02       3.17        0.04     1.28   0.530
  003152                     5.99       0.00       0.00       2.39       3.57       0.02       3.60        0.02     0.70   0.601
  005051                     5.99       0.00       0.00       1.57       4.29       0.11       4.40        0.00     0.07   0.735
  005052                     5.99       0.00       0.00       2.00       3.85       0.14       3.99        0.00     0.07   0.666
  00509                      5.99       0.00       0.00       1.57       4.34       0.06       4.40        0.09     2.60   0.735
  00510                      5.99       0.00       0.00       1.42       4.46       0.10       4.56        0.24     7.10   0.762
  00515                      5.99       0.00       0.00       1.82       4.14       0.00       4.14        0.24     6.46   0.692
  11504                      5.99       0.00       0.00       2.18       3.76       0.01       3.77        0.11     3.07   0.630
  11505                      5.99       0.00       0.00       1.51       4.43       0.01       4.44        0.27     7.26   0.741
  11510                      5.99       0.00       0.00       1.14       4.81       0.00       4.82        0.05     1.23   0.805
  
  
  ******************
  Node Depth Summary
  ******************
  
  ---------------------------------------------------------------------------------
                                 Average  Maximum  Maximum  Time of Max    Reported
                                   Depth    Depth      HGL   Occurrence   Max Depth
  Node                 Type         Feet     Feet     Feet  days hr:min        Feet
  ---------------------------------------------------------------------------------
  0010010002           JUNCTION     0.27     0.38    61.11     0  12:58        0.38
  0010010003           JUNCTION     0.40     0.47    61.36     0  13:17        0.47
  0010010004           JUNCTION     0.57     0.66    61.68     0  13:16        0.66
  0010010005           JUNCTION     0.61     0.71    61.92     0  13:11        0.71
  0010010006           JUNCTION     0.50     0.58    62.35     0  13:07        0.58
  0010010007           JUNCTION     0.44     0.53    62.74     0  13:07        0.53
  0010010008           JUNCTION     0.62     1.09    61.61     0  12:48        1.09
  0010010009           JUNCTION     0.82     1.37    61.94     0  12:51        1.36
  0010010010           JUNCTION     0.17     0.32    68.74     0  12:23        0.31
  0010010011           JUNCTION     0.58     1.11    69.55     0  12:23        1.09
  0010010012           JUNCTION     0.41     1.05    70.96     0  12:14        1.05
  0010010013           JUNCTION     0.43     1.10    71.13     0  12:15        1.10
  0010010014           JUNCTION     0.39     1.00    71.98     0  12:19        1.00
  0010010015           JUNCTION     0.61     1.06    69.55     0  12:24        1.04
  0010010016           JUNCTION     0.58     1.00    69.60     0  12:24        0.97
  0010010017           JUNCTION     0.61     0.96    69.68     0  12:24        0.95
  0010010018           JUNCTION     0.16     0.18    70.48     0  13:34        0.18
  0010010019           JUNCTION     0.29     0.33    71.05     0  13:33        0.33
  0010010020           JUNCTION     0.30     0.34    71.11     0  13:32        0.34
  0010010021           JUNCTION     0.09     0.10    73.91     0  13:32        0.10
  0010010022           JUNCTION     0.17     0.35    63.25     0  12:51        0.35
  0010010023           JUNCTION     0.54     0.90    64.01     0  12:50        0.90
  0010010046           JUNCTION     0.52     0.91    64.05     0  12:50        0.91
  0010010047           JUNCTION     0.02     0.10    69.50     0  12:24        0.10
  0010010048           JUNCTION     0.04     0.09    70.91     0  14:03        0.09
  0010010049           JUNCTION     0.06     0.13    71.85     0  12:48        0.13
  0010010050           JUNCTION     0.05     0.11    72.02     0  12:47        0.11
  0010010051           JUNCTION     0.07     0.14    72.57     0  12:43        0.14
  0010010052           JUNCTION     0.06     0.13    73.00     0  12:42        0.13
  0010010054           JUNCTION     0.14     0.29    73.41     0  12:41        0.29
  0010010055           JUNCTION     0.32     0.64    66.65     0  12:50        0.64
  0010010057           JUNCTION     0.36     0.75    68.77     0  12:49        0.75
  0010010059           JUNCTION     0.53     1.11    69.69     0  12:48        1.11
  0010010060           JUNCTION     0.45     0.97    70.23     0  12:47        0.96
  0010010065           JUNCTION     0.19     0.39    74.39     0  12:45        0.39
  0010010066           JUNCTION     0.23     0.46    77.46     0  12:44        0.46
  0010010067           JUNCTION     0.33     0.65    78.35     0  12:44        0.65
  0010010068           JUNCTION     0.22     0.44    81.02     0  12:43        0.44
  0010010069           JUNCTION     0.27     0.56    82.96     0  12:42        0.55
  0010010070           JUNCTION     0.41     0.80    83.47     0  12:42        0.80
  0010010071           JUNCTION     0.11     0.49    83.47     0  12:42        0.49
  0010010072           JUNCTION     0.36     0.76    83.89     0  12:40        0.76
  0010010073           JUNCTION     0.37     0.78    84.06     0  12:40        0.78
  0010010074           JUNCTION     0.41     0.86    84.46     0  12:38        0.86
  0010010075           JUNCTION     0.42     0.90    84.78     0  12:37        0.90
  0010010076           JUNCTION     0.40     0.86    85.16     0  12:35        0.86
  0010010077           JUNCTION     0.63     1.21    85.46     0  12:33        1.21
  0010010078           JUNCTION     0.35     0.76    85.66     0  12:32        0.76
  0010010079           JUNCTION     0.00     0.00    88.58     0  00:00        0.00
  0010010080           JUNCTION     0.00     0.00    88.80     0  00:00        0.00
  0010010084           JUNCTION     0.37     0.79    85.81     0  12:30        0.79
  0010010085           JUNCTION     0.41     0.87    86.37     0  12:27        0.86
  0010010086           JUNCTION     0.46     0.95    86.57     0  12:26        0.95
  0010010087           JUNCTION     0.39     0.83    87.06     0  12:24        0.83
  0010010088           JUNCTION     0.00     0.00    87.20     0  00:00        0.00
  0010010089           JUNCTION     0.00     0.00    87.60     0  00:00        0.00
  0010010090           JUNCTION     0.00     0.00    92.90     0  00:00        0.00
  0010010104           JUNCTION     0.23     0.46    89.47     0  12:22        0.46
  0010010109           JUNCTION     0.27     0.55    91.45     0  12:22        0.55
  0010010110           JUNCTION     0.89     1.93    62.49     0  12:46        1.92
  0010010111           JUNCTION     0.91     1.97    62.62     0  12:46        1.96
  0010010112           JUNCTION     1.02     2.19    63.08     0  12:46        2.19
  0010010113           JUNCTION     0.85     2.02    63.66     0  12:45        2.01
  0010010114           JUNCTION     0.60     1.31    65.04     0  12:13        1.31
  0010010115           JUNCTION     0.28     1.11    63.83     0  12:45        1.06
  0010010116           JUNCTION     0.35     0.65    64.81     0  12:47        0.65
  0010010117           JUNCTION     0.40     0.77    66.81     0  12:46        0.77
  0010010118           JUNCTION     0.40     0.76    68.13     0  12:45        0.76
  0010010119           JUNCTION     0.43     0.81    69.09     0  12:45        0.81
  0010010120           JUNCTION     0.41     0.78    70.13     0  12:44        0.78
  0010010121           JUNCTION     0.40     0.77    71.97     0  12:44        0.77
  0010010144           JUNCTION     0.12     0.27    74.70     0  12:41        0.27
  0010010145           JUNCTION     0.21     0.48    77.05     0  12:39        0.48
  0010010150           JUNCTION     0.22     0.50    77.16     0  12:38        0.50
  0010010151           JUNCTION     0.20     0.45    78.36     0  12:37        0.45
  0010010153           JUNCTION     0.19     0.43    79.66     0  12:36        0.43
  0010010154           JUNCTION     0.00     0.00    85.92     0  00:00        0.00
  0010010155           JUNCTION     0.21     0.48    80.67     0  12:34        0.48
  0010010159           JUNCTION     0.69     1.50    81.70     0  12:33        1.50
  0010010160           JUNCTION     0.38     1.23    82.03     0  12:33        1.23
  0010010161           JUNCTION     0.36     1.01    82.23     0  12:33        1.01
  0010010162           JUNCTION     0.42     1.04    82.32     0  12:33        1.04
  0010010164           JUNCTION     0.03     0.42    82.32     0  12:33        0.42
  0010010166           JUNCTION     0.00     0.00    88.27     0  00:00        0.00
  0010010174           JUNCTION     0.05     0.31    77.16     0  12:38        0.31
  0010010175           JUNCTION     0.00     0.00    81.09     0  00:00        0.00
  0010010176           JUNCTION     0.00     0.00    81.64     0  00:00        0.00
  0010010177           JUNCTION     0.00     0.00    86.72     0  00:00        0.00
  0010010184           JUNCTION     0.00     0.00    86.75     0  00:00        0.00
  0010010185           JUNCTION     0.00     0.00    87.41     0  00:00        0.00
  0010010186           JUNCTION     0.00     0.00    88.40     0  00:00        0.00
  0010010187           JUNCTION     0.00     0.00    89.01     0  00:00        0.00
  0010010188           JUNCTION     0.00     0.00    89.60     0  00:00        0.00
  0010010189           JUNCTION     0.37     0.69    74.50     0  12:43        0.69
  0010010190           JUNCTION     0.36     0.66    77.02     0  12:41        0.66
  0010010191           JUNCTION     0.35     0.65    78.77     0  12:41        0.65
  0010010192           JUNCTION     0.39     0.72    80.79     0  12:40        0.72
  0010010193           JUNCTION     0.28     0.51    82.15     0  12:40        0.51
  0010010194           JUNCTION     0.38     0.69    82.87     0  12:40        0.69
  0010010195           JUNCTION     0.32     0.61    83.59     0  12:39        0.61
  0010010196           JUNCTION     0.36     0.65    85.38     0  12:39        0.65
  0010010197           JUNCTION     0.43     0.80    87.04     0  12:38        0.80
  0010010198           JUNCTION     0.46     0.86    87.62     0  12:38        0.85
  0010010199           JUNCTION     0.48     0.91    88.12     0  12:37        0.91
  0010010200           JUNCTION     0.49     0.94    88.26     0  12:37        0.93
  0010010201           JUNCTION     0.47     0.90    88.55     0  12:36        0.90
  0010010202           JUNCTION     0.50     0.94    88.65     0  12:36        0.94
  0010010203           JUNCTION     0.42     0.80    88.96     0  12:36        0.80
  0010010204           JUNCTION     0.40     0.75    90.44     0  12:35        0.75
  0010010205           JUNCTION     0.40     0.75    91.51     0  12:34        0.75
  0010010206           JUNCTION     0.39     0.74    91.94     0  12:34        0.74
  0010010207           JUNCTION     0.49     0.89    92.25     0  12:34        0.89
  0010010208           JUNCTION     0.54     1.02    92.80     0  12:33        1.02
  0010010219           JUNCTION     0.00     0.00    93.90     0  00:00        0.00
  0010010221           JUNCTION     0.00     0.00    99.08     0  00:00        0.00
  0010010226           JUNCTION     0.00     0.00   101.34     0  00:00        0.00
  0010010228           JUNCTION     0.00     0.00   103.00     0  00:00        0.00
  0010010229           JUNCTION     0.00     0.00   104.20     0  00:00        0.00
  0010010231           JUNCTION     0.00     0.00    93.06     0  00:00        0.00
  0010010233           JUNCTION     0.19     0.38    98.86     0  12:21        0.38
  0010010234           JUNCTION     0.56     0.97    99.45     0  12:20        0.97
  0010010235           JUNCTION     0.41     0.88    99.52     0  12:20        0.88
  0010010236           JUNCTION     0.33     0.81    99.98     0  12:19        0.81
  0010010237           JUNCTION     0.33     0.74    99.45     0  12:20        0.74
  0010010238           JUNCTION     0.00     0.00   100.40     0  00:00        0.00
  0010010239           JUNCTION     0.00     0.00   100.91     0  00:00        0.00
  0010010243           JUNCTION     0.00     0.00   102.34     0  00:00        0.00
  0010010245           JUNCTION     0.00     0.00   104.89     0  00:00        0.00
  0010010246           JUNCTION     0.00     0.00   107.44     0  00:00        0.00
  0010010247           JUNCTION     4.01     4.54    74.96     0  01:50        4.54
  0010010251           JUNCTION     3.01     4.33    75.80     0  02:09        3.63
  0010010254           JUNCTION     1.43     2.35    75.51     0  02:47        2.05
  0010010256           JUNCTION     0.00     0.00    75.34     0  02:47        0.00
  0010010259           JUNCTION     0.00     0.00    79.35     0  00:00        0.00
  0010010260           JUNCTION     0.00     0.00    83.00     0  00:00        0.00
  0010020001           JUNCTION     0.44     1.17    82.51     0  12:33        1.17
  0010020002           JUNCTION     0.51     2.09    83.89     0  12:26        2.06
  0010020005           JUNCTION     0.55     2.87    85.20     0  12:20        2.82
  0010020012           JUNCTION     0.60     3.25    85.74     0  12:21        3.20
  0010020013           JUNCTION     0.69     4.58    87.77     0  12:20        4.55
  0010020015           JUNCTION     0.30     4.65    90.06     0  12:19        4.60
  0010020054           JUNCTION     0.19     5.55    91.90     0  12:09        3.68
  0010020065           JUNCTION     0.12     4.18    91.34     0  12:13        2.89
  0010020066           JUNCTION     0.04     3.43    91.88     0  12:16        1.57
  0010020090           JUNCTION     0.00     0.00    94.70     0  00:00        0.00
  0010020094           JUNCTION     0.00     0.00   101.14     0  00:00        0.00
  0010020268           JUNCTION     0.00     0.00    90.82     0  00:00        0.00
  0010030007           JUNCTION     0.44     0.64    71.64     0  12:24        0.64
  0010030008           JUNCTION     0.61     0.92    72.62     0  12:23        0.92
  0010030011           JUNCTION     0.46     0.67    73.17     0  12:22        0.67
  0010030012           JUNCTION     0.50     0.75    74.25     0  12:21        0.75
  0010030013           JUNCTION     0.48     0.71    75.21     0  12:20        0.71
  0010030017           JUNCTION     0.49     0.73    76.00     0  12:20        0.73
  0010030018           JUNCTION     0.44     0.66    76.29     0  12:19        0.66
  0010030019           JUNCTION     0.00     0.00    77.11     0  00:00        0.00
  0010030036           JUNCTION     0.00     0.00    77.97     0  00:00        0.00
  0010030067           JUNCTION     0.28     0.42    77.22     0  12:19        0.42
  0010030071           JUNCTION     0.33     0.48    78.18     0  12:19        0.48
  0010040001           JUNCTION     0.33     0.78    73.10     0  12:20        0.78
  0010040002           JUNCTION     0.36     0.85    73.87     0  12:19        0.85
  0010040003           JUNCTION     0.47     1.24    75.00     0  12:19        1.24
  0010040004           JUNCTION     0.28     0.63    79.63     0  12:18        0.63
  0010040005           JUNCTION     0.35     0.81    83.21     0  12:06        0.81
  0010040006           JUNCTION     0.39     0.42    74.24     0  13:26        0.42
  0010040007           JUNCTION     0.16     0.18    74.21     0  13:29        0.18
  0010040008           JUNCTION     0.53     0.58    74.21     0  13:28        0.58
  0010040009           JUNCTION     0.20     0.23    74.21     0  13:26        0.23
  0010040010           JUNCTION     0.00     0.00    74.83     0  00:00        0.00
  0010040011           JUNCTION     0.00     0.00    75.04     0  00:00        0.00
  0010040012           JUNCTION     0.17     0.19    74.90     0  13:24        0.19
  0010040014           JUNCTION     0.19     0.21    75.73     0  13:23        0.21
  0010040016           JUNCTION     0.19     0.21    76.15     0  13:22        0.21
  0010040017           JUNCTION     0.18     0.19    80.89     0  13:20        0.19
  0010040018           JUNCTION     0.18     0.19    82.09     0  13:19        0.19
  0010040019           JUNCTION     0.47     0.55    65.25     0  13:06        0.55
  0010040020           JUNCTION     0.48     0.56    67.84     0  13:05        0.56
  0010040021           JUNCTION     0.39     0.46    68.68     0  13:04        0.46
  0010040022           JUNCTION     0.62     0.73    69.63     0  13:03        0.73
  0010040023           JUNCTION     0.55     0.65    70.62     0  13:02        0.65
  0010040024           JUNCTION     0.63     0.74    71.29     0  13:00        0.74
  0010040031           JUNCTION     0.46     0.54    71.84     0  12:59        0.54
  0010040032           JUNCTION     0.71     0.83    71.49     0  13:00        0.83
  0010040034           JUNCTION     0.53     0.62    73.38     0  12:58        0.62
  0010040035           JUNCTION     0.40     0.46    75.47     0  12:58        0.46
  0010040036           JUNCTION     0.40     0.46    77.86     0  12:57        0.46
  0010040039           JUNCTION     0.19     0.25    79.42     0  12:44        0.25
  0010040040           JUNCTION     0.31     0.40    82.05     0  12:43        0.40
  0010040041           JUNCTION     0.31     0.40    84.57     0  12:43        0.40
  0010040044           JUNCTION     0.39     0.51    85.94     0  12:42        0.51
  0010040045           JUNCTION     0.30     0.38    87.88     0  12:40        0.38
  0010040046           JUNCTION     0.33     0.42    89.24     0  12:40        0.42
  0010040047           JUNCTION     0.33     0.42    90.54     0  12:39        0.42
  0010040050           JUNCTION     0.59     0.77    91.40     0  12:38        0.77
  0010040052           JUNCTION     0.59     0.77    91.44     0  12:38        0.77
  0010040053           JUNCTION     0.45     0.59    91.99     0  12:35        0.59
  0010040058           JUNCTION     0.50     0.65    92.70     0  12:30        0.65
  0010040061           JUNCTION     0.50     0.71    93.52     0  12:31        0.71
  0010040064           JUNCTION     0.55     0.81    94.34     0  12:28        0.81
  0010040067           JUNCTION     0.57     0.98    95.08     0  12:28        0.98
  001004006A           JUNCTION     0.37     0.40    74.21     0  13:31        0.40
  0010040070           JUNCTION     1.02     2.72    96.80     0  12:08        1.93
  0010040072           JUNCTION     0.56     3.16    98.40     0  12:08        1.67
  0010040078           JUNCTION     0.48     5.16   100.97     0  12:08        1.67
  0010040086           JUNCTION     0.28     0.30    82.48     0  13:03        0.30
  0010040087           JUNCTION     0.29     0.32    87.78     0  13:02        0.32
  0010040088           JUNCTION     0.26     0.29    88.99     0  13:02        0.29
  0010040089           JUNCTION     0.54     0.59    89.73     0  13:02        0.59
  0010040090           JUNCTION     0.71     0.77    90.21     0  13:01        0.77
  0010040099           JUNCTION     0.65     0.72    90.67     0  12:59        0.72
  0010040105           JUNCTION     0.63     0.70    91.21     0  12:56        0.70
  0010040114           JUNCTION     0.77     0.84    91.64     0  12:54        0.84
  0010040115           JUNCTION     0.59     0.65    92.06     0  12:51        0.65
  0010040116           JUNCTION     0.70     0.77    92.49     0  12:49        0.77
  0010040118           JUNCTION     0.72     0.78    92.54     0  12:49        0.78
  0010040119           JUNCTION     0.71     0.78    92.79     0  12:48        0.78
  0010040125           JUNCTION     0.71     0.78    92.97     0  12:47        0.78
  0010040131           JUNCTION     0.89     0.97    93.27     0  12:45        0.97
  0010040132           JUNCTION     1.02     1.12    93.47     0  12:44        1.12
  0010040135           JUNCTION     1.09     1.21    93.64     0  12:42        1.21
  0010040142           JUNCTION     0.66     0.78    93.81     0  12:40        0.78
  0010040143           JUNCTION     0.00     0.00    95.25     0  00:00        0.00
  0010040144           JUNCTION     0.00     0.00    95.96     0  00:00        0.00
  0010040161           JUNCTION     0.69     0.79    93.88     0  12:40        0.79
  0010040162           JUNCTION     1.09     1.77    95.66     0  12:08        1.55
  0010040164           JUNCTION     1.44     2.74    97.62     0  12:08        2.30
  0010040166           JUNCTION     2.79     4.13    99.71     0  12:08        3.90
  001004016A           JUNCTION     0.18     0.20    79.91     0  13:21        0.20
  001004016B           JUNCTION     0.15     0.17    79.29     0  13:22        0.17
  0010040188           JUNCTION     0.72     0.79    91.45     0  12:55        0.79
  0010040189           JUNCTION     0.64     0.70    92.01     0  12:52        0.70
  0010050001           JUNCTION     0.39     3.26    99.96     0  12:14        1.32
  0010050007           JUNCTION     0.38     3.20   100.03     0  12:14        1.29
  0010050014           JUNCTION     0.62     6.12   103.39     0  11:52        2.38
  0010050019           JUNCTION     0.81     4.59   101.87     0  11:52        2.97
  0010050022           JUNCTION     0.41     2.22   100.76     0  12:20        2.20
  0010050076           JUNCTION     3.95     5.42   101.95     0  12:14        5.31
  0010050089           JUNCTION     4.63     6.24   103.47     0  12:14        6.15
  0010050090           JUNCTION     4.98     6.68   104.25     0  12:14        6.59
  0010050091           JUNCTION     5.08     6.81   104.38     0  12:14        6.69
  0010050096           JUNCTION     5.12     6.99   105.26     0  12:14        6.85
  0010050107           JUNCTION     5.14     7.02   105.34     0  12:14        6.92
  0010050108           JUNCTION     2.86     4.78   106.14     0  12:14        4.72
  0010050121           JUNCTION     3.27     5.25   106.85     0  12:49        5.23
  0010060001           JUNCTION     0.18     0.19    84.43     0  13:18        0.19
  0010060002           JUNCTION     0.19     0.21    86.26     0  13:16        0.21
  0010060003           JUNCTION     0.33     0.36    86.76     0  13:14        0.36
  0010060004           JUNCTION     0.31     0.34    87.24     0  13:10        0.34
  0010060014           JUNCTION     0.33     0.36    87.47     0  13:08        0.36
  0010060015           JUNCTION     0.20     0.22    88.72     0  13:04        0.22
  0010060024           JUNCTION     0.00     0.00    92.69     0  00:00        0.00
  0010060025           JUNCTION     0.00     0.00    95.69     0  00:00        0.00
  0010060028           JUNCTION     0.00     0.00    95.74     0  00:00        0.00
  0010060029           JUNCTION     0.00     0.00    96.40     0  00:00        0.00
  0010060030           JUNCTION     0.00     0.00    98.24     0  00:00        0.00
  0010060042           JUNCTION     0.25     0.56    90.56     0  12:17        0.56
  0010060043           JUNCTION     0.34     0.88    93.27     0  12:23        0.88
  0010060044           JUNCTION     0.29     3.31    96.90     0  12:00        1.05
  0010060045           JUNCTION     0.38     3.40    97.89     0  12:00        1.77
  0010060068           JUNCTION     0.58     4.08    98.97     0  12:00        3.24
  0010060080           JUNCTION     0.58     4.72   100.22     0  12:00        4.22
  0010060120           JUNCTION     0.49     3.34    95.94     0  11:54        1.38
  0010060121           JUNCTION     0.61     4.65    97.65     0  11:52        2.76
  0010060122           JUNCTION     0.76     8.18   101.58     0  11:52        4.30
  0010060123           JUNCTION     0.59     9.75   104.76     0  11:52        4.37
  0010060163           JUNCTION     0.57     7.88   104.41     0  11:54        4.42
  0010060164           JUNCTION     0.81     7.04   104.18     0  11:54        5.80
  0010060165           JUNCTION     0.87     7.07   104.78     0  12:21        7.05
  0010060246           JUNCTION     0.24     0.27    87.17     0  13:11        0.27
  0010070001           JUNCTION     0.73     1.55    65.67     0  12:14        1.55
  0010070002           JUNCTION     0.57     1.46    65.80     0  12:15        1.46
  0010070005           JUNCTION     0.60     1.50    66.76     0  12:19        1.50
  0010070008           JUNCTION     0.82     1.99    67.52     0  12:18        1.99
  0010070012           JUNCTION     0.33     2.88    76.22     0  12:04        1.98
  0010070018           JUNCTION     0.77     2.84    68.65     0  12:04        2.27
  0010070019           JUNCTION     0.78     3.03    68.90     0  12:04        2.34
  0010070023           JUNCTION     0.80     4.94    71.01     0  12:04        2.59
  0010070027           JUNCTION     4.90     8.65    70.45     0  12:04        7.31
  0010070032           JUNCTION     3.72     8.23    71.34     0  02:21        6.54
  0010070038           JUNCTION     0.47     5.59    73.13     0  12:04        2.53
  0010070039           JUNCTION     0.80     6.26    74.00     0  12:04        2.75
  0010070040           JUNCTION     0.83     5.89    73.96     0  12:04        3.08
  0010070041           JUNCTION     0.86     5.09    73.49     0  12:04        3.44
  0010070046           JUNCTION     0.72     1.56    65.73     0  12:14        1.55
  0010070047           JUNCTION     0.67     1.51    65.80     0  12:14        1.51
  0010070049           JUNCTION     0.80     1.70    66.55     0  12:17        1.70
  0010070051           JUNCTION     0.92     2.03    67.18     0  12:09        2.03
  0010070052           JUNCTION     0.96     8.35    73.85     0  12:06        2.44
  0010070054           JUNCTION     0.96     7.11    72.98     0  12:06        2.75
  0010070055           JUNCTION     0.89     8.66    75.04     0  12:05        2.87
  0010070056           JUNCTION     0.98     5.65    72.36     0  12:05        3.11
  0010070057           JUNCTION     0.90     5.45    72.55     0  12:05        3.16
  0010070062           JUNCTION     1.24     6.24    73.51     0  12:03        3.48
  0010070063           JUNCTION     1.38     5.26    72.53     0  12:03        3.98
  0010070064           JUNCTION     1.28     4.79    72.20     0  12:05        3.91
  0010070065           JUNCTION     1.82     5.02    71.97     0  12:05        4.74
  0010070066           JUNCTION     1.27     4.51    72.03     0  12:06        4.16
  0010070067           JUNCTION     1.39     4.55    72.01     0  12:03        4.55
  0010070068           JUNCTION     0.58     3.65    72.25     0  12:03        3.43
  0010070069           JUNCTION     0.33     3.71    72.73     0  12:03        3.01
  0010070072           JUNCTION     0.31     3.67    72.76     0  12:03        2.95
  0010070073           JUNCTION     0.25     3.37    72.79     0  12:03        2.64
  0010070075           JUNCTION     0.58     3.60    72.23     0  12:03        3.42
  0010070076           JUNCTION     0.59     3.38    72.24     0  12:03        3.22
  0010070085           JUNCTION     1.43     4.61    72.03     0  12:16        4.59
  0010070087           JUNCTION     1.43     4.57    71.99     0  12:03        4.57
  0010070088           JUNCTION     0.36     4.99    73.82     0  12:04        3.17
  0010070089           JUNCTION     0.26     5.65    74.90     0  12:09        2.75
  0010070090           JUNCTION     0.23     5.49    74.88     0  12:04        2.66
  0010070091           JUNCTION     0.11     5.72    76.23     0  12:09        1.52
  0010070092           JUNCTION     0.01     0.23    72.09     0  12:13        0.18
  0010070093           JUNCTION     1.37     4.63    72.07     0  12:03        4.40
  0010070095           JUNCTION     1.36     4.66    72.15     0  12:03        4.53
  0010070096           JUNCTION     0.78     5.94    74.76     0  12:03        4.35
  0010070097           JUNCTION     0.90     5.67    74.55     0  12:03        4.48
  0010070098           JUNCTION     1.12     6.90    75.90     0  12:02        5.45
  0010070099           JUNCTION     0.93     7.35    77.00     0  12:02        5.89
  0010070100           JUNCTION     0.98     8.22    78.35     0  12:02        6.38
  0010070103           JUNCTION     0.70     3.02    72.36     0  12:03        2.84
  0010070114           JUNCTION     0.88     2.68    72.38     0  09:36        2.68
  0010070124           JUNCTION     0.91     2.81    73.05     0  12:03        2.81
  0010070129           JUNCTION     1.09     3.13    73.66     0  09:36        3.13
  0010070131           JUNCTION     1.43     4.60    75.90     0  10:25        4.60
  0010080001           JUNCTION     0.70     5.09    73.93     0  12:04        4.24
  0010080002           JUNCTION     0.84     5.44    74.52     0  12:05        5.38
  0010080083           JUNCTION     0.35     6.37    76.41     0  12:06        5.50
  0010080084           JUNCTION     0.26     7.07    77.73     0  11:56        4.94
  0010080085           JUNCTION     0.13     5.79    77.97     0  12:06        3.46
  0010080086           JUNCTION     0.00     0.33    75.70     0  12:11        0.24
  0010080087           JUNCTION     0.00     0.00    75.93     0  00:00        0.00
  0010080088           JUNCTION     0.00     0.00    76.58     0  00:00        0.00
  0010080096           JUNCTION     0.09     5.66    78.46     0  12:06        2.85
  0010080099           JUNCTION     0.05    11.65    99.21     0  12:13        1.83
  0010080100           JUNCTION     0.06     5.30    78.80     0  12:06        2.17
  0010080101           JUNCTION     0.02     0.99    75.70     0  12:09        0.99
  0010080116           JUNCTION     0.00     0.21    76.25     0  12:49        0.21
  0010080117           JUNCTION     0.01     0.23    77.19     0  12:48        0.23
  0010080118           JUNCTION     0.00     0.23    79.73     0  12:46        0.22
  0010080120           JUNCTION     0.01     0.31    80.81     0  12:45        0.31
  0010080122           JUNCTION     0.01     0.31    81.81     0  12:43        0.31
  0010080124           JUNCTION     0.00     0.28    83.28     0  12:42        0.27
  0010080126           JUNCTION     0.00     0.25    85.57     0  12:41        0.25
  0010080143           JUNCTION     0.00     0.00    88.65     0  00:00        0.00
  0010080144           JUNCTION     0.00     0.00    89.56     0  00:00        0.00
  0010080145           JUNCTION     0.00     0.00    90.23     0  00:00        0.00
  0010080147           JUNCTION     0.00     0.00    91.79     0  00:00        0.00
  0010080149           JUNCTION     0.00     0.00    91.95     0  00:00        0.00
  0010080151           JUNCTION     0.00     0.00    92.76     0  00:00        0.00
  0010080152           JUNCTION     0.00     0.00    92.44     0  00:00        0.00
  0010080182           JUNCTION     0.01     0.58    86.58     0  12:40        0.58
  0010090001           JUNCTION     0.58     4.76    73.52     0  12:04        3.12
  0010090002           JUNCTION     0.55     4.19    73.32     0  12:04        2.73
  0010090003           JUNCTION     0.52     3.42    72.92     0  12:04        2.39
  0010090004           JUNCTION     0.48     1.74    71.90     0  11:58        1.74
  0010090005           JUNCTION     0.51     4.80    76.25     0  12:04        4.14
  0010090006           JUNCTION     0.37     5.70    80.04     0  12:12        4.58
  0010090007           JUNCTION     0.41     5.35    80.63     0  12:03        5.35
  0010090008           JUNCTION     0.44     2.04    72.27     0  12:01        2.01
  0010090009           JUNCTION     0.57     3.21    73.78     0  12:06        3.19
  0010090014           JUNCTION     0.56     4.44    75.40     0  12:01        4.44
  0010090022           JUNCTION     0.50     7.16    78.59     0  12:02        4.26
  0010090023           JUNCTION     0.47     8.62    80.52     0  12:02        4.03
  0010090024           JUNCTION     0.46     9.34    81.62     0  12:01        3.88
  0010090025           JUNCTION     0.46    10.06    82.80     0  12:02        3.69
  0010090026           JUNCTION     0.46     4.58    77.80     0  12:04        3.49
  0010090035           JUNCTION     0.43     4.32    77.80     0  12:04        3.35
  0010090036           JUNCTION     0.43     4.39    78.50     0  12:05        3.03
  0010090045           JUNCTION     0.42     3.24    77.90     0  12:06        2.78
  0010090046           JUNCTION     0.42     3.56    78.80     0  12:09        2.51
  0010090047           JUNCTION     0.39     2.12    78.18     0  12:16        2.02
  0010090048           JUNCTION     0.19     0.73    78.68     0  12:17        0.70
  0010090050           JUNCTION     0.47     8.18    92.30     0  11:51        4.49
  0010090054           JUNCTION     0.62     8.75    93.62     0  11:51        4.77
  0010090056           JUNCTION     0.61     9.33    94.86     0  11:51        5.11
  0010090057           JUNCTION     0.61     9.44    95.25     0  11:51        5.28
  0010090146           JUNCTION     0.00     0.00    91.21     0  00:00        0.00
  0010100001           JUNCTION     0.68    10.72    97.02     0  11:51        6.87
  0010100002           JUNCTION     0.39     9.42   101.40     0  11:47        5.31
  0010100003           JUNCTION     1.25    13.54   107.30     0  11:47       13.54
  0010100004           JUNCTION     0.69     8.99   103.68     0  11:46        8.99
  0010100005           JUNCTION     0.48     5.63   101.25     0  11:21        5.63
  0010100008           JUNCTION     0.35     4.25   100.85     0  11:34        4.25
  0010100011           JUNCTION     0.27     4.05   101.42     0  11:45        3.42
  0010100013           JUNCTION     0.23     4.16   101.87     0  11:45        3.08
  0010110001           JUNCTION     0.98     8.36    78.74     0  12:02        6.63
  0010110036           JUNCTION     0.99     7.55    78.20     0  12:03        6.93
  0010110038           JUNCTION     0.80     7.18    78.41     0  12:03        7.18
  0010110039           JUNCTION     0.63     5.75    78.82     0  12:03        5.75
  0010110040           JUNCTION     0.71     5.84    79.37     0  12:03        5.67
  0010110042           JUNCTION     0.58     5.04    79.30     0  12:03        5.04
  0010110045           JUNCTION     0.64     4.17    79.58     0  12:03        4.02
  0010110046           JUNCTION     1.15     7.73    78.58     0  12:03        7.62
  0010110062           JUNCTION     0.70     7.30    79.81     0  12:03        7.30
  0010110063           JUNCTION     0.77     7.55    80.27     0  12:03        7.55
  0010110065           JUNCTION     0.75     8.90    82.08     0  12:08        8.47
  0010110066           JUNCTION     0.34     7.24    86.90     0  12:08        4.43
  0010120001           JUNCTION     0.51     4.29    80.13     0  12:03        3.85
  0010120003           JUNCTION     0.61     6.89    83.94     0  12:03        4.82
  0010120008           JUNCTION     0.61     4.48    83.76     0  11:54        4.48
  0010120009           JUNCTION     0.67     6.81    87.24     0  12:26        6.80
  0010120027           JUNCTION     0.51     6.30    90.23     0  12:08        6.30
  0010120028           JUNCTION     0.51     6.66    91.92     0  12:12        6.64
  0010120031           JUNCTION     0.84     9.38    94.93     0  12:09        9.38
  0010120071           JUNCTION     0.27     4.24   101.88     0  11:45        3.12
  0010120072           JUNCTION     0.21     3.71   101.65     0  11:45        2.84
  0010120073           JUNCTION     0.15     4.04   102.66     0  11:49        2.09
  0010120076           JUNCTION     0.10     4.95   104.24     0  11:53        1.33
  0010130001           JUNCTION     0.45     8.75    89.47     0  12:09        4.84
  0010130002           JUNCTION     0.43     9.40    90.50     0  12:09        6.30
  0010130003           JUNCTION     0.41     9.53    90.70     0  12:09        6.50
  0010130004           JUNCTION     0.47    10.45    91.90     0  12:10        7.80
  0010130005           JUNCTION     0.21     7.01    93.36     0  12:10        4.34
  0010130006           JUNCTION     0.26     6.56    94.82     0  12:12        3.90
  0010130007           JUNCTION     0.20     3.83    95.26     0  12:16        1.67
  0010130008           JUNCTION     0.28     3.32    96.27     0  12:16        2.17
  0010130009           JUNCTION     0.44     3.65    96.77     0  12:16        3.49
  0010130013           JUNCTION     0.94     9.31    91.73     0  12:09        4.50
  0010130014           JUNCTION     1.13     5.94    88.85     0  12:09        5.20
  0010130015           JUNCTION     1.36     5.72    88.73     0  12:09        5.71
  0010130017           JUNCTION     1.05     5.12    89.16     0  12:09        5.12
  0010130018           JUNCTION     1.14     5.20    89.61     0  12:09        5.17
  0010130023           JUNCTION     1.18     5.33    90.37     0  12:09        5.32
  0010130024           JUNCTION     1.24     5.45    91.12     0  11:53        5.45
  0010130025           JUNCTION     0.53     2.59    89.42     0  11:36        2.59
  0010130026           JUNCTION     0.00     0.00    97.46     0  00:00        0.00
  0010130027           JUNCTION     0.00     0.00    98.59     0  00:00        0.00
  0010130028           JUNCTION     0.00     0.00    99.41     0  00:00        0.00
  0010130029           JUNCTION     0.71     4.34    92.54     0  11:53        3.94
  0010130031           JUNCTION     0.27     0.65    95.85     0  12:26        0.65
  0010130032           JUNCTION     0.76     3.45    99.63     0  12:10        3.40
  0010130034           JUNCTION     1.04     5.78   102.81     0  12:09        5.75
  001013013A           JUNCTION     0.30     9.31    91.21     0  12:09        3.82
  001013032A           JUNCTION     0.93     5.02   101.82     0  12:09        5.00
  0010140001           JUNCTION     0.48     0.92    93.24     0  12:33        0.92
  0010140002           JUNCTION     0.00     0.00    93.74     0  00:00        0.00
  0010140004           JUNCTION     0.00     0.00    94.20     0  00:00        0.00
  0010140005           JUNCTION     0.00     0.00    94.99     0  00:00        0.00
  0010140019           JUNCTION     0.32     0.67   102.27     0  12:18        0.67
  0010140037           JUNCTION     0.60     1.10    93.59     0  12:32        1.10
  0010140038           JUNCTION     0.66     1.22    93.79     0  12:32        1.22
  0010140039           JUNCTION     0.63     1.23    93.94     0  12:31        1.23
  0010140040           JUNCTION     0.00     0.00    94.45     0  00:00        0.00
  0010140041           JUNCTION     0.00     0.00    99.87     0  00:00        0.00
  0010140042           JUNCTION     0.40     0.74    94.36     0  12:30        0.74
  0010140043           JUNCTION     0.56     0.98    94.71     0  12:29        0.98
  0010140044           JUNCTION     0.56     1.06    94.96     0  12:29        1.06
  0010140045           JUNCTION     0.40     0.91    95.01     0  12:30        0.91
  0010140049           JUNCTION     0.25     0.44    95.62     0  12:34        0.44
  0010140052           JUNCTION     0.06     0.24    95.62     0  12:35        0.24
  0010140076           JUNCTION     0.64     1.20    95.24     0  12:27        1.19
  0010140077           JUNCTION     0.46     0.98    95.38     0  12:26        0.98
  0010140078           JUNCTION     0.43     0.83    95.97     0  12:23        0.83
  0010140079           JUNCTION     0.50     0.93    96.13     0  12:23        0.92
  0010140081           JUNCTION     0.14     0.33    96.77     0  12:20        0.33
  0010140082           JUNCTION     0.29     0.72    98.54     0  12:19        0.72
  0010140083           JUNCTION     0.32     0.75    97.25     0  12:05        0.74
  0010140084           JUNCTION     0.36     0.84    99.86     0  12:17        0.83
  0010140105           JUNCTION     0.00     0.00    97.16     0  00:00        0.00
  0010140108           JUNCTION     0.00     0.00    97.75     0  00:00        0.00
  0010140109           JUNCTION     0.00     0.00    99.12     0  00:00        0.00
  0010140110           JUNCTION     0.00     0.00    99.30     0  00:00        0.00
  0010140111           JUNCTION     0.00     0.00   100.93     0  00:00        0.00
  0010140113           JUNCTION     0.00     0.00   101.67     0  00:00        0.00
  0010140126           JUNCTION     0.41     0.81    96.19     0  12:33        0.81
  0010140127           JUNCTION     0.43     0.82    96.22     0  12:35        0.82
  0010140128           JUNCTION     0.42     0.79    96.46     0  12:38        0.79
  0010140129           JUNCTION     0.41     0.75    96.78     0  12:38        0.75
  0010140132           JUNCTION     0.45     0.85    97.28     0  12:36        0.85
  0010140133           JUNCTION     0.48     0.90    97.53     0  12:35        0.90
  0010140134           JUNCTION     0.49     0.93    97.67     0  12:34        0.93
  0010140141           JUNCTION     0.48     0.92    97.96     0  12:32        0.92
  0010140142           JUNCTION     0.49     0.94    98.28     0  12:30        0.94
  0010140144           JUNCTION     0.46     0.90    98.54     0  12:28        0.90
  0010140145           JUNCTION     0.51     0.96    98.68     0  12:27        0.95
  0010140154           JUNCTION     0.71     1.22    98.87     0  12:25        1.22
  0010140155           JUNCTION     0.77     1.29    98.89     0  12:25        1.29
  0010140157           JUNCTION     0.83     1.36    98.91     0  12:24        1.36
  0010140158           JUNCTION     0.90     1.47    98.96     0  12:24        1.47
  0010140159           JUNCTION     0.29     0.53    99.41     0  12:21        0.53
  0010140160           JUNCTION     0.42     0.77   100.11     0  12:21        0.77
  0010140161           JUNCTION     0.40     0.78   100.46     0  12:20        0.78
  0010140162           JUNCTION     0.44     0.90   100.60     0  12:20        0.90
  0010140170           JUNCTION     0.00     0.00   100.72     0  00:00        0.00
  0010140171           JUNCTION     0.00     0.00   100.93     0  00:00        0.00
  0010140172           JUNCTION     0.00     0.00   101.97     0  00:00        0.00
  0010140174           JUNCTION     0.50     0.96    98.73     0  12:26        0.96
  0010140175           JUNCTION     0.47     0.92    98.37     0  12:29        0.92
  0010140266           JUNCTION     0.23     0.50   100.90     0  12:18        0.50
  0010140279           JUNCTION     0.43     1.04   101.25     0  12:19        1.04
  0010140280           JUNCTION     0.35     0.71   101.96     0  12:19        0.71
  0020010001           JUNCTION     0.27     0.34    76.62     0  12:22        0.34
  0020010002           JUNCTION     0.95     1.29    78.45     0  12:22        1.29
  0020010003           JUNCTION     0.51     0.66    79.66     0  12:21        0.66
  0020010006           JUNCTION     0.79     1.05    81.91     0  12:21        1.05
  0020010008           JUNCTION     0.75     1.02    82.23     0  12:20        1.02
  0020010009           JUNCTION     0.71     0.95    83.40     0  12:20        0.95
  0020010010           JUNCTION     0.64     0.88    83.66     0  12:20        0.88
  0020010011           JUNCTION     0.97     1.26    83.95     0  12:20        1.26
  0020010016           JUNCTION     1.21     1.86    84.93     0  12:19        1.86
  0020010017           JUNCTION     0.77     1.15    85.93     0  12:19        1.15
  0020010018           JUNCTION     2.18     3.08    87.14     0  12:17        3.03
  0020010020           JUNCTION     0.06     1.00    87.47     0  12:17        0.95
  0020010021           JUNCTION     0.00     0.27    87.48     0  12:17        0.21
  0020010022           JUNCTION     0.00     0.00    87.71     0  00:00        0.00
  0020010023           JUNCTION     0.14     0.19    80.94     0  12:45        0.19
  0020010024           JUNCTION     0.36     0.46    81.46     0  12:45        0.46
  0020010025           JUNCTION     0.28     0.37    83.37     0  12:44        0.37
  0020010026           JUNCTION     0.31     0.41    83.88     0  12:44        0.41
  0020010027           JUNCTION     0.72     0.93    84.40     0  12:43        0.93
  0020010032           JUNCTION     0.45     0.65    84.65     0  12:43        0.65
  0020010033           JUNCTION     0.58     0.80    84.85     0  12:41        0.79
  0020010034           JUNCTION     0.54     0.89    85.49     0  12:37        0.89
  0020010035           JUNCTION     0.55     2.04    87.54     0  12:26        1.12
  0020010036           JUNCTION     0.56     1.83    87.75     0  12:26        1.20
  0020010042           JUNCTION     0.48     2.17    89.49     0  12:26        1.13
  0020010043           JUNCTION     0.69     2.44    90.12     0  12:26        1.51
  0020010059           JUNCTION     0.00     0.00    84.94     0  00:00        0.00
  0020010060           JUNCTION     0.00     0.00    85.73     0  00:00        0.00
  0020010064           JUNCTION     0.00     0.00    86.52     0  00:00        0.00
  0020010065           JUNCTION     0.00     0.00    87.14     0  00:00        0.00
  0020010067           JUNCTION     0.00     0.00    93.65     0  00:00        0.00
  0020010071           JUNCTION     0.00     0.00    95.00     0  00:00        0.00
  0020010074           JUNCTION     0.00     0.00    94.08     0  00:00        0.00
  0020010080           JUNCTION     0.00     0.00    95.16     0  00:00        0.00
  0020010084           JUNCTION     0.00     0.00    97.58     0  00:00        0.00
  0020010093           JUNCTION     0.00     0.00    99.11     0  00:00        0.00
  0020010096           JUNCTION     0.00     0.00   101.67     0  00:00        0.00
  0020010097           JUNCTION     0.00     0.00   102.96     0  00:00        0.00
  0020010127           JUNCTION     0.00     0.00   102.35     0  00:00        0.00
  002001036A           JUNCTION     0.56     2.51    89.00     0  14:05        1.31
  0020020055           JUNCTION     0.33     1.36    77.50     0  12:42        1.32
  0020020056           JUNCTION     0.33     1.38    77.58     0  12:44        1.32
  0020020099           JUNCTION     0.32     1.36    77.93     0  12:41        1.33
  0020020100           JUNCTION     0.32     1.37    78.05     0  12:42        1.32
  0020020119           JUNCTION     0.91     1.05    90.15     0  12:32        1.05
  0020020120           JUNCTION     0.92     1.12    90.66     0  12:31        1.12
  0020020121           JUNCTION     1.02     1.28    91.14     0  12:29        1.28
  0020020122           JUNCTION     0.89     1.21    91.53     0  12:28        1.21
  0020020139           JUNCTION     0.28     1.17    78.28     0  12:42        1.16
  0020020140           JUNCTION     0.27     0.86    78.61     0  12:42        0.85
  0020020141           JUNCTION     0.28     0.75    79.40     0  12:26        0.75
  0020020142           JUNCTION     0.30     0.82    80.12     0  12:25        0.82
  0020020143           JUNCTION     0.31     0.88    80.67     0  12:23        0.87
  0020020144           JUNCTION     0.27     0.73    81.17     0  12:22        0.72
  0020020153           JUNCTION     0.91     1.21    92.08     0  12:27        1.21
  002002100A           JUNCTION     0.29     1.33    78.14     0  12:42        1.29
  0020030001           JUNCTION     0.29     0.80    81.84     0  12:20        0.80
  0020030002           JUNCTION     0.17     0.42    85.88     0  12:19        0.42
  0020030003           JUNCTION     0.21     0.53    88.51     0  12:19        0.53
  0020030009           JUNCTION     0.28     0.95    89.53     0  12:18        0.94
  0020030010           JUNCTION     1.84     3.29    90.39     0  12:19        3.25
  0020030015           JUNCTION     0.64     2.88    91.25     0  12:18        2.81
  0020030031           JUNCTION     0.98     1.33    92.57     0  12:26        1.33
  0020030032           JUNCTION     0.98     1.45    93.05     0  12:24        1.45
  0020030033           JUNCTION     0.90     1.39    93.12     0  12:24        1.39
  0020030037           JUNCTION     0.72     1.32    93.74     0  12:18        1.31
  0020030038           JUNCTION     0.54     1.17    93.77     0  12:18        1.14
  0020030041           JUNCTION     0.17     0.73    93.73     0  12:18        0.73
  0020030046           JUNCTION     0.12     0.57    93.74     0  12:18        0.55
  0020040001           JUNCTION     0.45     1.55    87.48     0  12:16        1.49
  0020040002           JUNCTION     0.00     0.00    88.52     0  00:00        0.00
  0020040003           JUNCTION     0.00     0.00    90.26     0  00:00        0.00
  0020040005           JUNCTION     0.00     0.00    98.30     0  00:00        0.00
  0020040006           JUNCTION     0.00     0.00    99.79     0  00:00        0.00
  0020040007           JUNCTION     0.00     0.00   102.02     0  00:00        0.00
  0020040009           JUNCTION     0.00     0.00   102.63     0  00:00        0.00
  0020040010           JUNCTION     0.00     0.00   103.40     0  00:00        0.00
  0020040017           JUNCTION     0.00     0.00    91.12     0  00:00        0.00
  0020040018           JUNCTION     0.00     0.00    95.30     0  00:00        0.00
  0020040019           JUNCTION     0.00     0.00    97.50     0  00:00        0.00
  0020040029           JUNCTION     1.79     7.11    91.76     0  20:39        2.81
  0020040030           JUNCTION     1.41     2.50    87.62     0  12:19        2.42
  0020040031           JUNCTION     1.19     2.27    87.65     0  12:19        2.21
  0020040033           JUNCTION     1.12     2.18    87.70     0  12:19        2.12
  0020040034           JUNCTION     0.92     1.97    87.76     0  12:22        1.89
  0020040041           JUNCTION     0.70     1.48    87.79     0  12:22        1.47
  0020040042           JUNCTION     0.77     1.45    87.83     0  12:22        1.43
  0020040043           JUNCTION     0.66     1.16    87.89     0  12:22        1.14
  0020040044           JUNCTION     0.66     1.02    87.93     0  12:23        1.01
  0020040045           JUNCTION     0.37     0.40    88.57     0  12:19        0.40
  0020040046           JUNCTION     0.12     0.29    88.71     0  12:18        0.29
  0020040051           JUNCTION     0.00     0.00    89.67     0  00:00        0.00
  0020050001           JUNCTION     0.65     2.65    91.05     0  12:26        1.80
  0020050016           JUNCTION     0.69     2.79    92.05     0  12:26        2.07
  0020050053           JUNCTION     0.83     3.17    93.33     0  12:26        2.64
  0020050055           JUNCTION     0.74     3.10    94.03     0  12:26        2.65
  0020050057           JUNCTION     0.83     3.19    94.96     0  12:26        2.94
  0020050084           JUNCTION     1.25     3.41    98.25     0  12:08        2.22
  0020060001           JUNCTION     0.24     0.34    70.60     0  13:13        0.34
  0020060002           JUNCTION     1.38     2.73    73.06     0  12:31        2.35
  0020060003           JUNCTION     1.24     2.59    73.15     0  12:31        2.26
  0020060004           JUNCTION     1.21     2.43    73.20     0  12:31        2.32
  0020060005           JUNCTION     0.55     1.03    73.38     0  13:09        1.03
  0020060006           JUNCTION     0.79     0.97    73.73     0  13:04        0.97
  0020060007           JUNCTION     0.64     0.74    74.74     0  12:39        0.74
  0020060008           JUNCTION     1.07     1.24    75.44     0  12:39        1.24
  0020060009           JUNCTION     1.24     1.68    76.00     0  12:35        1.62
  0020060010           JUNCTION     1.06     1.50    76.15     0  12:33        1.49
  0020060011           JUNCTION     1.63     5.39    80.54     0  23:42        2.65
  0020060012           JUNCTION     1.03     2.13    78.34     0  12:34        2.11
  0020060013           JUNCTION     1.40     2.58    78.87     0  12:33        2.56
  0020060014           JUNCTION     0.40     0.45    82.67     0  12:35        0.45
  0020060019           JUNCTION     0.55     0.63    85.17     0  12:34        0.63
  0020060020           JUNCTION     0.53     0.61    87.26     0  12:33        0.61
  0020060022           JUNCTION     0.81     3.28    74.23     0  12:31        2.15
  0020060023           JUNCTION     0.38     3.71    75.28     0  12:31        2.00
  0020060024           JUNCTION     0.28     3.26    75.31     0  12:31        1.71
  0020060033           JUNCTION     0.28     0.97    74.34     0  12:58        0.96
  0020060034           JUNCTION     0.29     0.73    74.81     0  12:38        0.73
  0020060036           JUNCTION     0.35     0.92    75.40     0  12:43        0.92
  0020060039           JUNCTION     0.34     0.94    75.51     0  12:44        0.94
  0020060042           JUNCTION     0.34     1.05    76.03     0  12:42        1.05
  0020060045           JUNCTION     0.34     1.17    76.46     0  12:44        1.16
  0020060046           JUNCTION     0.33     1.33    77.18     0  12:41        1.24
  0020060069           JUNCTION     0.53     0.61    89.36     0  12:33        0.61
  0030010001           JUNCTION     0.00     0.00    70.65     0  00:00        0.00
  0030010002           JUNCTION     0.00     0.00    70.58     0  00:00        0.00
  0030010003           JUNCTION     0.00     0.00    70.91     0  00:00        0.00
  0030010004           JUNCTION     0.00     0.00    70.96     0  00:00        0.00
  0030010005           JUNCTION     0.00     0.00    70.93     0  00:00        0.00
  0030010006           JUNCTION     0.00     0.00    71.22     0  00:00        0.00
  0030010007           JUNCTION     0.00     0.00    71.44     0  00:00        0.00
  0030010008           JUNCTION     0.00     0.00    71.88     0  00:00        0.00
  0030010009           JUNCTION     0.00     0.00    72.19     0  00:00        0.00
  0030010020           JUNCTION     0.13     0.25    70.72     0  13:58        0.24
  0030010021           JUNCTION     0.78     1.13    71.54     0  13:43        1.11
  0030010022           JUNCTION     0.65     1.02    71.56     0  13:52        1.01
  0030010023           JUNCTION     0.71     1.12    71.60     0  13:44        1.10
  0030010024           JUNCTION     0.83     1.43    71.79     0  13:43        1.43
  0030010025           JUNCTION     0.55     0.94    71.59     0  13:43        0.93
  0030010026           JUNCTION     0.35     0.73    71.64     0  13:40        0.73
  0030010027           JUNCTION     0.45     0.92    71.78     0  13:41        0.92
  0030010038           JUNCTION     0.10     0.36    72.10     0  13:47        0.36
  0030010039           JUNCTION     0.17     0.59    72.39     0  13:46        0.59
  0030010040           JUNCTION     0.34     0.88    72.42     0  13:46        0.88
  0030010041           JUNCTION     0.14     0.56    72.42     0  13:46        0.56
  0030010046           JUNCTION     0.17     0.60    72.51     0  13:45        0.60
  0030010047           JUNCTION     0.12     0.46    72.82     0  13:43        0.46
  0030010048           JUNCTION     0.16     0.56    73.02     0  13:41        0.56
  0030010049           JUNCTION     0.16     0.58    73.17     0  13:40        0.58
  0030010050           JUNCTION     0.14     0.53    73.33     0  13:38        0.53
  0030010051           JUNCTION     0.16     0.58    73.47     0  13:37        0.58
  0030010052           JUNCTION     0.11     0.45    73.51     0  13:36        0.45
  0030010053           JUNCTION     0.24     0.73    73.70     0  13:34        0.73
  0030010054           JUNCTION     0.13     0.52    73.76     0  13:34        0.51
  0030010055           JUNCTION     0.09     0.32    73.84     0  13:30        0.32
  0030010056           JUNCTION     0.64     0.95    71.63     0  13:44        0.95
  0030010057           JUNCTION     1.23     1.60    71.80     0  13:48        1.60
  0030010058           JUNCTION     0.68     1.03    71.86     0  13:47        1.03
  0030010061           JUNCTION     0.76     1.09    72.06     0  13:46        1.09
  0030010062           JUNCTION     0.85     1.19    72.28     0  13:43        1.19
  0030010063           JUNCTION     0.87     1.23    72.43     0  13:44        1.23
  0030010064           JUNCTION     0.88     1.25    72.55     0  13:43        1.25
  0030010067           JUNCTION     0.82     1.18    72.65     0  13:42        1.18
  0030010068           JUNCTION     0.89     1.26    72.79     0  13:41        1.26
  0030010069           JUNCTION     0.00     0.00    73.11     0  00:00        0.00
  0030010070           JUNCTION     0.00     0.00    73.11     0  00:00        0.00
  0030010074           JUNCTION     0.00     0.00    74.90     0  00:00        0.00
  0030010086           JUNCTION     0.00     0.00    75.68     0  00:00        0.00
  0030010116           JUNCTION     0.94     1.31    72.86     0  13:41        1.31
  0030010117           JUNCTION     0.88     1.27    72.93     0  13:40        1.27
  0030010118           JUNCTION     0.83     1.21    73.08     0  13:39        1.21
  0030010119           JUNCTION     0.88     1.24    73.32     0  13:37        1.24
  0030010120           JUNCTION     0.87     1.23    73.43     0  13:36        1.23
  0030010121           JUNCTION     0.86     1.22    73.47     0  13:35        1.22
  0030010122           JUNCTION     0.85     1.21    73.56     0  13:34        1.21
  0030010123           JUNCTION     0.89     1.25    73.68     0  13:32        1.25
  0030010124           JUNCTION     0.96     1.33    73.76     0  13:31        1.33
  0030010125           JUNCTION     0.93     1.30    73.80     0  13:31        1.30
  0030010126           JUNCTION     0.86     1.23    73.89     0  13:30        1.23
  0030010127           JUNCTION     0.61     0.90    74.37     0  13:28        0.90
  0030010128           JUNCTION     0.47     0.71    74.60     0  13:27        0.71
  0030010129           JUNCTION     0.62     0.91    74.72     0  13:27        0.91
  0030010130           JUNCTION     0.79     1.13    75.02     0  13:26        1.13
  0030010137           JUNCTION     0.86     1.20    75.09     0  13:26        1.20
  0030010138           JUNCTION     0.88     1.23    75.12     0  13:26        1.23
  0030010139           JUNCTION     0.92     1.30    75.19     0  13:25        1.30
  0030010140           JUNCTION     0.97     1.36    75.25     0  13:25        1.36
  0030010167           JUNCTION     1.41     1.82    72.94     0  13:40        1.82
  003001075            JUNCTION     0.00     0.00    78.50     0  00:00        0.00
  0030030001           JUNCTION     1.00     1.43    75.37     0  13:24        1.43
  0030030002           JUNCTION     0.35     0.50    76.17     0  13:22        0.50
  0030030003           JUNCTION     0.56     0.69    81.82     0  12:07        0.68
  0030030006           JUNCTION     0.51     0.62    87.80     0  13:43        0.62
  0030030007           JUNCTION     0.74     2.28    93.42     0  11:55        1.43
  0030030008           JUNCTION     1.47     3.19    96.60     0  12:44        3.16
  0030030009           JUNCTION     1.46     3.32    97.54     0  12:51        3.30
  0030030011           JUNCTION     1.68     4.82    99.93     0  12:01        3.91
  0030030013           JUNCTION     0.86     5.02   101.52     0  11:52        2.55
  0030030014           JUNCTION     0.83     5.76   102.80     0  11:52        2.15
  0030030015           JUNCTION     0.59     5.86   103.58     0  12:01        1.58
  0030030016           JUNCTION     0.49     4.12   102.51     0  12:05        1.02
  0030030079           JUNCTION     0.85     1.28    76.72     0  13:22        1.28
  0030030080           JUNCTION     1.20     1.70    76.82     0  13:21        1.70
  0030030081           JUNCTION     1.52     2.07    76.88     0  13:22        2.06
  0030040001           JUNCTION     1.99     2.78    77.13     0  12:47        2.67
  0030040002           JUNCTION     1.99     2.72    77.07     0  12:49        2.67
  0030040003           JUNCTION     1.20     1.87    77.03     0  13:19        1.86
  0030040004           JUNCTION     1.22     1.97    77.13     0  13:20        1.95
  0030040005           JUNCTION     1.28     2.13    77.23     0  13:24        2.00
  0030040006           JUNCTION     0.67     1.35    77.09     0  13:24        1.34
  0030040007           JUNCTION     0.73     1.40    77.14     0  13:23        1.40
  0030040008           JUNCTION     0.83     1.51    77.18     0  13:24        1.51
  0030040009           JUNCTION     0.42     1.03    77.20     0  13:25        1.03
  0030040010           JUNCTION     0.40     0.84    77.25     0  13:21        0.84
  0030040011           JUNCTION     0.53     0.94    77.35     0  13:22        0.94
  0030040012           JUNCTION     0.55     0.97    77.38     0  13:20        0.97
  0030040013           JUNCTION     0.58     1.00    77.41     0  13:20        1.00
  0030040014           JUNCTION     0.39     0.75    77.51     0  13:17        0.75
  0030040015           JUNCTION     0.48     0.82    77.63     0  13:14        0.82
  0030040016           JUNCTION     0.45     0.80    77.88     0  13:09        0.80
  0030040019           JUNCTION     0.56     0.95    78.37     0  13:05        0.95
  0030040020           JUNCTION     0.58     1.00    78.47     0  13:05        1.00
  0030040021           JUNCTION     0.64     1.08    78.55     0  13:04        1.08
  0030040023           JUNCTION     0.78     1.37    78.91     0  13:02        1.37
  0030040024           JUNCTION     0.66     1.29    79.03     0  13:01        1.29
  0030040025           JUNCTION     0.66     1.29    79.14     0  13:01        1.29
  0030040065           JUNCTION     0.41     0.83    79.27     0  13:00        0.83
  0030070001           JUNCTION     0.64     1.08    79.57     0  12:55        1.08
  0030070002           JUNCTION     0.49     0.92    79.62     0  12:54        0.92
  0030070003           JUNCTION     0.56     0.97    79.75     0  12:51        0.97
  0030070058           JUNCTION     0.34     0.58    80.03     0  12:43        0.58
  0030070059           JUNCTION     0.24     0.41    83.89     0  12:43        0.41
  0030070060           JUNCTION     0.41     0.68    84.76     0  12:42        0.68
  0030070061           JUNCTION     0.41     0.71    85.46     0  12:41        0.71
  0030070062           JUNCTION     0.43     0.75    86.26     0  12:39        0.75
  0030070063           JUNCTION     0.43     0.74    86.77     0  12:38        0.74
  0030070064           JUNCTION     0.44     0.77    87.51     0  12:36        0.77
  0030070065           JUNCTION     0.45     0.78    88.13     0  12:34        0.78
  0030080001           JUNCTION     1.60     2.20    76.93     0  13:22        2.18
  0030080002           JUNCTION     1.62     2.26    76.99     0  13:20        2.25
  0030080003           JUNCTION     1.62     2.30    77.03     0  13:17        2.28
  0030080004           JUNCTION     2.01     2.74    77.09     0  13:17        2.69
  0030080005           JUNCTION     1.83     2.87    77.47     0  12:21        2.81
  0030080006           JUNCTION     1.45     2.91    77.96     0  12:23        2.85
  0030080007           JUNCTION     0.40     2.21    78.62     0  12:06        1.84
  0030080008           JUNCTION     0.24     1.37    79.26     0  12:23        1.25
  0030080012           JUNCTION     0.41     1.22    79.87     0  12:23        1.17
  0030080013           JUNCTION     0.36     0.80    80.33     0  12:29        0.80
  0030080015           JUNCTION     0.39     0.78    81.63     0  12:25        0.78
  0030080016           JUNCTION     0.40     0.80    83.06     0  12:28        0.80
  0030080018           JUNCTION     0.39     0.78    84.50     0  12:25        0.78
  0030080020           JUNCTION     0.39     0.78    86.31     0  12:24        0.78
  0030080021           JUNCTION     0.40     0.81    86.47     0  12:24        0.81
  0030080023           JUNCTION     0.39     0.78    88.60     0  12:23        0.78
  0030080036           JUNCTION     1.30     2.78    77.99     0  12:17        2.74
  0030080037           JUNCTION     1.39     2.92    78.04     0  12:17        2.83
  0030080038           JUNCTION     1.13     2.69    78.08     0  12:18        2.64
  0030080039           JUNCTION     0.94     2.58    78.18     0  12:17        2.50
  0030080040           JUNCTION     0.90     2.60    78.25     0  12:17        2.50
  0030080041           JUNCTION     0.85     2.60    78.30     0  12:17        2.50
  0030080042           JUNCTION     0.00     0.00    80.81     0  00:00        0.00
  0030080043           JUNCTION     0.00     0.00    81.22     0  00:00        0.00
  0030080044           JUNCTION     0.00     0.00    81.84     0  00:00        0.00
  0030080045           JUNCTION     0.00     0.00    83.04     0  00:00        0.00
  0030080046           JUNCTION     0.00     0.00    84.39     0  00:00        0.00
  0030080053           JUNCTION     0.82     2.58    78.32     0  12:17        2.47
  0030080055           JUNCTION     0.61     2.44    78.42     0  12:17        2.32
  0030080056           JUNCTION     0.60     2.43    78.43     0  12:18        2.32
  0030080057           JUNCTION     0.59     2.39    78.41     0  12:18        2.31
  0030080058           JUNCTION     0.75     2.62    78.49     0  12:18        2.48
  0030080059           JUNCTION     0.63     2.50    78.49     0  12:17        2.37
  003008008A           JUNCTION     0.82     2.72    79.13     0  12:23        2.62
  0030100001           JUNCTION     0.41     0.85    91.92     0  12:20        0.85
  0030100002           JUNCTION     0.61     1.47    92.72     0  12:13        1.37
  0030100003           JUNCTION     0.71     2.01    93.31     0  12:13        1.87
  0030100006           JUNCTION     0.46     2.09    94.38     0  12:13        1.81
  0030100007           JUNCTION     0.47     2.12    94.53     0  12:13        1.82
  0030100013           JUNCTION     0.38     1.86    94.69     0  12:13        1.58
  0030100019           JUNCTION     0.38     1.68    94.94     0  12:13        1.44
  0030100020           JUNCTION     0.55     2.17    96.37     0  12:19        2.13
  0030100021           JUNCTION     0.53     3.98    99.35     0  12:06        2.67
  0030100022           JUNCTION     0.61     3.46    99.67     0  12:19        3.42
  0030110001           JUNCTION     0.18     0.42    84.84     0  12:53        0.42
  0030110002           JUNCTION     0.20     0.48    86.45     0  12:51        0.48
  0030110003           JUNCTION     0.19     0.46    87.51     0  12:50        0.46
  0030110004           JUNCTION     0.20     0.46    88.93     0  12:46        0.46
  0030110005           JUNCTION     0.20     0.46    89.94     0  12:47        0.46
  0030110006           JUNCTION     0.20     0.47    90.22     0  12:46        0.47
  0030110007           JUNCTION     0.20     0.46    91.48     0  12:45        0.46
  0030110008           JUNCTION     0.23     0.65    92.73     0  12:43        0.65
  0030110009           JUNCTION     0.45     2.72    95.02     0  12:33        1.94
  0030110010           JUNCTION     0.25     2.43    95.74     0  12:33        1.36
  0030110011           JUNCTION     0.29     2.25    95.99     0  12:33        1.26
  0030110012           JUNCTION     0.27     2.41    96.36     0  12:31        1.23
  0030110013           JUNCTION     0.26     3.58    98.23     0  12:33        1.09
  0030110014           JUNCTION     0.26     0.97    96.36     0  12:37        0.94
  0030110015           JUNCTION     0.25     0.75    97.22     0  12:23        0.74
  0030110052           JUNCTION     0.18     0.45    99.29     0  12:19        0.45
  003011014A           JUNCTION     0.26     0.76    96.76     0  12:42        0.75
  0030140001           JUNCTION     0.11     0.25    72.57     0  13:02        0.25
  0030140002           JUNCTION     0.17     0.40    73.24     0  13:02        0.39
  0030140003           JUNCTION     0.52     0.85    73.31     0  13:01        0.85
  0030140004           JUNCTION     0.09     0.20    78.58     0  13:01        0.20
  0030140005           JUNCTION     0.24     0.49    79.28     0  13:00        0.49
  0030140006           JUNCTION     0.15     0.35    79.81     0  12:59        0.35
  0030140007           JUNCTION     0.15     0.35    80.40     0  12:58        0.35
  0030140008           JUNCTION     0.24     0.53    80.75     0  12:58        0.53
  0030140009           JUNCTION     0.18     0.42    81.84     0  12:56        0.42
  0030140010           JUNCTION     0.18     0.42    83.26     0  12:53        0.42
  0030150035           JUNCTION     0.37     0.73    90.90     0  12:21        0.73
  0050010001           JUNCTION     2.08     6.57    92.47     0  14:51        6.52
  0050010002           JUNCTION     2.23     6.56    92.48     0  14:52        6.49
  0050010003           JUNCTION     2.16     6.41    92.49     0  14:48        6.35
  0050010004           JUNCTION     2.26     6.50    92.49     0  14:51        6.48
  0050010005           JUNCTION     2.28     6.51    92.51     0  14:50        6.48
  0050010008           JUNCTION     2.14     6.36    92.53     0  14:51        6.31
  0050010009           JUNCTION     2.15     6.35    92.52     0  14:49        6.31
  0050010010           JUNCTION     2.10     6.31    92.55     0  14:49        6.25
  0050010011           JUNCTION     2.08     6.25    92.57     0  14:49        6.20
  0050010020           JUNCTION     0.13     3.79    94.95     0  14:25        1.30
  0050010021           JUNCTION     0.09     1.34    92.76     0  14:35        1.03
  0050010038           JUNCTION     2.01     6.25    92.51     0  14:52        6.20
  0050010039           JUNCTION     2.04     6.23    92.50     0  14:49        6.19
  0050010043           JUNCTION     1.88     5.99    92.52     0  14:53        5.94
  0050010044           JUNCTION     2.17     5.90    92.56     0  14:52        5.86
  0050010045           JUNCTION     2.23     5.81    92.61     0  14:51        5.78
  0050010046           JUNCTION     2.27     5.74    92.68     0  14:57        5.66
[...]
  0030040002.1                1.63      1.80      1.63      3.44         1.07
  0030040003.1                0.01      0.01      1.80      0.01         0.01
  0030040004.1                0.01      0.01      0.01     16.74         0.01
  0030040005.1                0.01      0.01      0.09      0.01         0.01
  0030040006.1                0.01      0.01      0.09      0.01         0.01
  0030040007.1                0.01      0.01      0.01     21.16         0.01
  0030040011.1                0.01      0.01      0.01     16.47         0.01
  0030040012.1                0.01      0.01      0.01      4.28         0.01
  0030040013.1                0.01      0.01      0.01      4.56         0.01
  0030040021.1                0.01      0.01      0.01     17.66         0.01
  0030040023.1                0.01      0.01      0.01      5.13         0.01
  0030040025.1                0.01      0.01      0.01      0.61         0.01
  0030070001.1                0.01      0.01      0.01      2.78         0.01
  0030080002.1                0.01      0.01      0.01     15.61         0.01
  0030080003.1               20.89     20.89     20.89     17.67        14.71
  0030080004.1               20.89     20.89     21.84      0.01         0.01
  0030080005.1               21.33     21.33     21.84      1.32         1.44
  0030080006.1               15.88     15.88     21.33      0.12         0.17
  0030080007.1                2.16      2.16     20.99      0.01         0.01
  0030080008.1                0.51      0.51      2.36      0.01         0.01
  0030080012.1                0.29      0.29      0.51      0.01         0.01
  0030080013.1                0.01      0.01      0.29      0.01         0.01
  0030080036.1                8.14      8.14     15.88      0.01         0.01
  0030080037.1                8.14      8.14     13.54      0.01         0.01
  0030080038.1                4.02      4.02     13.54      0.01         0.01
  0030080039.1                2.76      2.76      4.02      0.01         0.01
  0030080040.1                2.64      2.64      2.76      0.21         0.28
  0030080041.1                2.53      2.53      2.64      0.01         0.12
  0030080053.1                2.46      2.46      2.53      0.01         0.31
  0030080055.1                2.15      2.15      2.46      0.01         0.01
  0030080056.1                2.13      2.13      2.15      0.01         0.43
  0030080057.1                2.10      2.10      2.13      0.01         0.34
  0030080058.1                2.10      2.10      2.31      0.01         0.01
  0030080059.1                2.15      2.15      2.31      0.01         0.01
  0030080060.1                0.72      0.72      2.15      0.01         0.01
  003008008A.1                2.16      2.36      2.16     23.20         2.16
  0030100001.1                0.01      0.01      0.01      0.15         0.01
  0030100002.1                0.01      2.06      0.01      2.78         0.01
  0030100003.1                2.06      2.24      2.06      8.85         2.06
  0030100006.1                1.87      1.87      2.24      0.01         0.02
  0030100007.1                1.84      1.84      1.87      0.01         0.81
  0030100013.1                1.31      1.31      1.84      0.01         0.01
  0030100019.1                0.85      0.85      1.31      0.01         0.01
  0030100020.1                0.85      1.48      0.85      2.06         0.85
  0030100021.1                1.40      1.51      1.48      1.84         1.40
  0030100022.1                1.51      1.71      1.51      2.11         1.51
  0030100023.1                1.71      1.97      1.71      2.11         1.71
  0030110008.1                0.01      0.01      0.01      0.82         0.01
  0030110009.1                0.01      3.25      0.01      5.17         0.01
  0030110010.1                0.92      0.92      1.78      0.01         0.01
  0030110011.1                0.77      0.77      0.92      0.01         0.01
  0030110012.1                0.71      0.71      0.77      0.01         0.07
  0030110013.1                0.52      0.52      0.71      0.08         0.01
  0030110014.1                0.28      0.28      0.52      0.18         0.01
  0030110015.1                0.01      0.01      0.01      0.27         0.01
  003011014A.1                0.01      0.01      0.28      0.27         0.01
  0050010001.1                8.30      8.30      8.78      0.01         0.01
  0050010002.1                6.89      6.89      6.90      0.01         2.44
  0050010003.1                6.65      6.65      6.89      0.01         0.01
  0050010004.1                6.65      6.65      6.78      0.01         0.01
  0050010005.1                6.78      6.78      6.78      0.98         3.16
  0050010008.1                6.55      6.55      6.78      0.01         0.01
  0050010009.1                7.28      7.29      7.28      9.89         4.16
  0050010010.1                8.02      8.02      8.11      0.01         0.04
  0050010011.1                6.39      6.39      6.48      0.01         0.01
  0050010020.1                2.10      2.10     10.35      0.01         0.01
  0050010021.1                1.08      1.08      2.10      0.01         0.01
  0050010038.1                7.91      7.91      8.20      0.01         0.01
  0050010039.1                7.90      7.90      7.91      0.01         3.14
  0050010043.1                8.32      8.32      8.66      0.01         0.01
  0050010044.1                8.32      8.38      8.32     15.14         3.98
  0050010045.1                8.38     10.07      8.38     13.88         2.97
  0050010046.1               10.07     10.74     10.07     12.90         4.18
  0050010047.1               10.74     11.01     10.74     16.29         7.16
  0050010050.1               11.01     11.20     11.01     18.71         7.25
  0050010053.1               10.63     10.63     11.20      1.69         1.73
  0050010057.1                9.84      9.84     10.63      0.01         0.40
  00500100WW.1                8.78      8.78     11.35      0.01         0.01
  0050020001.1                6.22      6.22      7.12      0.01         0.01
  0050020002.1                7.94     10.41      7.94     19.09         7.94
  0050020004.1                8.08      8.08      8.16      0.01         0.21
  0050020005.1                7.10      7.10      7.99      0.01         0.01
  0050020006.1                6.43      6.43      7.10      0.01         0.01
  0050020007.1                8.44      8.44      8.53      0.01         0.01
  0050020008.1                6.32      6.32      8.43      0.01         0.01
  0050020009.1                5.41      5.41      6.32      0.01         0.01
  0050020010.1                5.22      5.22      5.41      0.01         0.01
  0050020011.1                4.09      4.09      5.22      0.01         0.01
  0050020012.1                0.01      0.01      4.09      0.01         0.01
  0050020020.1                8.16      8.55      8.16      9.45         8.16
  0050020021.1                8.50      8.63      8.55      8.97         8.43
  0050020022.1                7.14      7.14      7.51      0.01         0.01
  0050020023.1                6.68      6.68      7.14      0.01         0.01
  0050020024.1                6.36      6.36      6.68      0.01         0.01
  0050020040.1                8.64      8.64     18.69      0.01         0.01
  0050020041.1                8.64      8.76      8.64     23.48         8.63
  0050020042.1                8.75      8.84      8.76      8.55         6.18
  0050020045.1                8.84     11.26      8.84     20.48         8.84
  0050020051.1                8.43      8.43     11.26      0.01         0.01
  0050020054.1                8.03      8.03      8.43      0.01         0.01
  0050020055.1                7.57      7.57      8.03      0.01         0.01
  0050020056.1                7.14      7.14      7.57      0.01         0.01
  0050020058.1                7.14      9.36      7.14     13.35         6.67
  0050020064.1                8.44      8.44      9.36      1.59         1.60
  0050020067.1                7.24      7.24      8.44      0.01         0.01
  0050020070.1                0.07      0.07      7.24      0.01         0.01
  0050020072.1                0.01      0.01      0.07      0.01         0.01
  0050020081.1                7.99      7.99      8.08      0.01         0.12
  0050030001.1                7.69      7.69      7.90      0.01         0.01
  0050030002.1                7.30      7.30      7.69      0.01         0.01
  0050030003.1                6.71      6.71      7.30      0.01         0.01
  0050030004.1                6.09      6.09      6.71      0.01         0.01
  0050030005.1                5.31      5.31      6.09      0.01         0.01
  0050030006.1                4.59      4.59      5.31      0.01         0.01
  0050030007.1                3.70      3.70      4.59      0.01         0.01
  0050030008.1                3.38      3.38      3.70      0.01         0.01
  0050030009.1                2.97      2.97      3.38      0.01         0.01
  0050030010.1                2.35      2.35      2.97      0.01         0.01
  0050030011.1                1.66      1.66      2.35      0.01         0.01
  0050030012.1                0.84      0.84      1.66      0.01         0.01
  0050030013.1                0.01      0.01      0.84      0.01         0.01
  0050030018.1                0.01      0.01      4.40      0.01         0.01
  0050030065.1                0.01      2.28      0.01      2.63         0.01
  0050030066.1                2.28      2.55      2.28      3.41         2.28
  0050030079.1                2.55      3.46      2.55      6.73         2.55
  0050030080.1                2.37      2.37      3.46      0.01         0.01
  0050030082.1                1.95      1.95      2.37      0.01         0.01
  0050030084.1                1.25      1.25      1.95      0.01         0.01
  0050030086.1                1.25      1.25      1.32      0.01         0.01
  0050030087.1                0.01      0.01      1.42      0.01         0.01
  0050030093.1                0.01      0.01      1.42      0.01         0.01
  0050030100.1                2.38      2.38      3.46      0.01         0.01
  0050030109.1                2.46      2.46      2.61      0.01         0.01
  0050030111.1                0.01      0.01      2.61      0.01         0.01
  0050030111.2                0.01      0.01      2.61      0.01         0.01
  0050030146.1                2.56      2.56      3.46      1.30         1.34
  0050030148.1                1.86      1.86      2.36      0.01         0.01
  0050030149.1                2.22      3.99      2.22     23.49         2.22
  0050030151.1                2.05      2.05      3.99      0.01         0.01
  0050040001.1                6.68      6.68      7.29      0.01         0.01
  0050040002.1                6.27      6.27      6.68      0.07         0.01
  0050040003.1                5.58      5.58      6.27      0.01         0.01
  0050040005.1                4.62      4.62      5.58      0.01         0.01
  0050040006.1                0.01      0.01      5.18      0.01         0.01
  0050050001.1                6.22      6.22      6.36      0.01         0.01
  0050050005.1                5.88      5.88      6.45      0.01         0.01
  0050050019.1                5.20      5.20      5.88      0.01         0.01
  0050050033.1                5.16      5.16      5.20      0.01         1.82
  0050050034.1                4.68      4.68      5.16      0.15         0.01
  0050050035.1                4.28      4.29      4.68      0.12         0.01
  0050050042.1                3.92      3.92      4.29      0.01         0.01
  0050050043.1                3.32      3.32      3.92      0.01         0.01
  0050050063.1                0.01      0.01      3.32      0.01         0.01
  0050050067.1                0.01      0.01      2.06      0.01         0.01
  0050060001.1                6.02      6.02      9.84      0.01         0.01
  0050060002.1                5.97      5.97      6.25      4.32         0.01
  0050060015.1                5.53      6.05      5.97      1.42         0.01
  0050060016.1                6.05      7.98      6.05     20.22         3.86
  0050060021.1                7.09      7.09     18.61      0.01         0.01
  0050060022.1                4.40      4.40      7.09      0.01         0.01
  0050060026.1               18.61     22.76     18.61     23.35        18.61
  0050060027.1               22.76     22.78     22.76     22.87        22.75
  0050060028.1               22.77     22.77     22.78      1.61         9.13
  0050060029.1               20.61     20.61     22.77      0.01         0.01
  0050060030.1                9.36      9.36     20.61      0.01         0.01
  0050060031.1                6.59      6.59      9.36      0.71         0.85
  0050060036.1                2.30      2.30      6.49      0.01         0.01
  0050060040.1                0.14      0.14      5.44      0.01         0.01
  0050060042.1                0.01      0.01      0.14      0.01         0.01
  0050060054.1                0.01      0.01     22.90      0.01         0.01
  0050060055.1                0.01     21.30      0.01     23.09         0.01
  0050060059.1                4.60      4.60     21.30      0.01         0.01
  0050060062.1                4.60      4.60     23.76      3.57         0.01
  0050060063.1               14.82     14.82     23.76      5.92         6.30
  0050060069.1               11.23     11.23     14.82      5.33         5.59
  0050060075.1                5.23      5.23     11.23      0.01         0.01
  0050060080.1                3.28      3.28      5.23      0.01         0.01
  0050060081.1                2.18      2.18      3.28      0.01         0.01
  0050060082.1                1.43      1.43      2.18      0.01         0.01
  0060000024.1                0.01      2.53      0.01     10.02         0.01
  0060000025.1                1.88      1.88      2.53      0.01         0.01
  0060000026.1                1.88      1.93      1.88      2.20         1.88
  0060000027.1                1.93      1.94      1.93      2.07         1.93
  0060000029.1                1.94      1.96      1.94      2.25         1.94
  0060000031.1                1.96      1.99      1.96      2.23         1.96
  0060000032.1                1.99      1.99      1.99      1.97         1.94
  0060000033.1                1.99      2.01      1.99      2.22         1.99
  0060000034.1                1.97      1.97      2.01      1.96         1.94
  0060000035.1                1.76      1.76      1.97      0.01         0.01
  0060000038.1                1.54      1.54      1.76      0.46         0.01
  0060000040.1                0.01      0.01     11.55      0.01         0.01
  0060000040W.1               1.42      1.42      1.54      0.48         0.01
  0180010008.1                0.01      0.01     13.07      7.09         0.01
  0500010064.1                0.01      0.01      0.01      0.80         0.01
  0500010065.1                0.01      1.81      0.01      2.56         0.01
  0500010066.1                1.81      2.73      1.81      3.87         1.81
  1150010001.1                0.01      0.01     17.21      0.01         0.01
  1150010010.1                0.01      0.01      0.01      2.29         0.01
  1150010032.1                0.01      0.45      0.01      8.37         0.01
  1150010035.1                0.45      1.17      0.45      1.65         0.45
  1150010038.1                0.99      0.99      1.17      0.83         0.92
  1150010040.1                0.99      0.99      1.84      3.87         0.01
  1150010047.1                0.44      0.44      1.84      0.01         0.01
  1150010053.1                0.01      0.01      0.44      0.01         0.01
  1150010076.1                1.92      1.92     10.93      0.30         0.34
  1150010077.1                1.21      1.21      1.92      0.01         0.01
  1150010078.1                1.21      1.43      1.21      1.89         1.21
  1150010079.1                1.39      1.39      1.43      0.86         0.95
  1150010080.1                1.39      1.57      1.39      1.74         1.39
  1150010098.1                1.54      1.54      1.57      1.31         1.28
  1150010099.1                0.01      0.01      1.54      0.01         0.01
  1150010119.1                0.01      0.01      1.49      0.01         0.01
  1150010119.2                1.49      1.49      1.54      1.10         1.08
  1150020001.1                0.01      7.35      0.01     17.50         0.01
  1150020006.1                0.46      0.46      7.35      0.01         0.01
  1150020009.1                0.46      7.38      0.46     23.41         0.46
  1150020026.1                5.31      5.31      7.38      1.58         1.73
  1150020035.1                4.69      4.69      5.31      0.01         0.71
  1150020039.1                4.80      4.95      4.80      5.47         4.80
  1150020040.1                0.01      0.01      5.01      0.01         0.01
  1150020069.1                4.63      4.63      5.42      4.02         4.02
  1150020073.1                4.63      5.02      4.63      5.69         4.63
  1150020074.1                5.02     14.23      5.02     22.81         5.02
  115002035A.1                4.69      4.80      4.69      5.23         4.69
  1_0.1                       1.39      1.39      1.45      0.37         0.39
  LS006FM.1                   0.22      0.56      0.62      0.73         0.04
  LS01FM2.1                  17.14     18.35     18.19     18.57        15.14
  LS115FM.1                   3.65      5.19     10.04      2.69         0.80
  MC05.1                      0.01     17.85      0.01     14.48         0.01
  
  
  ***************
  Pumping Summary
  ***************
  
  ---------------------------------------------------------------------------------------------------------
                                                  Min       Avg       Max     Total     Power    % Time Off
                        Percent   Number of      Flow      Flow      Flow    Volume     Usage    Pump Curve
  Pump                 Utilized   Start-Ups       MGD       MGD       MGD  10^6 gal     Kw-hr    Low   High
  ---------------------------------------------------------------------------------------------------------
  LS001.1                 24.62         321      0.00     19.00     19.00     4.677     67.53    0.0    0.0
  LS001.2                  0.00           0      0.00      0.00      0.00     0.000      0.00    0.0    0.0
  LS002.1                 85.55          76      0.00      3.90      3.92     3.338     47.67    0.0    0.0
  LS002.2                 41.63          55      0.00      2.40      2.42     1.000     14.83    0.0    0.0
  LS003.1                 42.82         420      0.00      5.90      5.90     2.526     28.44    0.0    0.0
  LS003.2                  0.00           0      0.00      0.00      0.00     0.000      0.00    0.0    0.0
  LS005.1                 86.58         557      0.00      3.21      3.25     2.783    489.37    0.0    0.0
  LS005.2                 51.77         159      0.00      1.32      1.34     0.683    171.85    0.0    0.0
  LS006.1                  7.54         214      0.00      3.00      3.00     0.226      9.97    0.0    0.0
  LS007.1                 54.05         235      0.00     10.30     10.31     5.567    162.76    0.0    0.0
  LS007.2                  7.72          14      0.00      6.50      6.50     0.502     13.85    0.0    0.0
  LS115.1                 47.12         123      0.00      2.20      2.21     1.037     58.52    0.0    0.0
  LS115.2                  4.12           8      0.00      1.30      1.30     0.054      3.38    0.0    0.0
  

  Analysis begun on:  Wed Jun 24 08:15:59 2026
  Analysis ended on:  Wed Jun 24 08:17:18 2026
  Total elapsed time: 00:01:19