
  EPA STORM WATER MANAGEMENT MODEL - VERSION 5.2 (Build 5.2.4)
  ------------------------------------------------------------

  Scenario Run :  BASE 
  Scenario Run :  BASE 
  WARNING 04: minimum elevation drop used for Conduit 000002.1
  WARNING 04: minimum elevation drop used for Conduit 000004.1
  WARNING 04: minimum elevation drop used for Conduit 000006.1
  WARNING 04: minimum elevation drop used for Conduit 000008.1
  WARNING 04: minimum elevation drop used for Conduit 000009.2
  WARNING 04: minimum elevation drop used for Conduit 000011.1
  WARNING 04: minimum elevation drop used for Conduit 000012.2
  WARNING 04: minimum elevation drop used for Conduit 000014.1
  WARNING 04: minimum elevation drop used for Conduit 000015.1
  WARNING 04: minimum elevation drop used for Conduit 000016.1
  WARNING 04: minimum elevation drop used for Conduit 000020.2
  WARNING 04: minimum elevation drop used for Conduit 000026.1
  WARNING 04: minimum elevation drop used for Conduit 000028.3
  WARNING 04: minimum elevation drop used for Conduit 000029.3
  WARNING 04: minimum elevation drop used for Conduit 000029A.1
  WARNING 04: minimum elevation drop used for Conduit 000031.1
  WARNING 04: minimum elevation drop used for Conduit 000032.1
  WARNING 04: minimum elevation drop used for Conduit 000034.1
  WARNING 04: minimum elevation drop used for Conduit 000037.2
  WARNING 04: minimum elevation drop used for Conduit 000040.1
  WARNING 04: minimum elevation drop used for Conduit 000041.2
  WARNING 04: minimum elevation drop used for Conduit 000042.3
  WARNING 04: minimum elevation drop used for Conduit 000044.1
  WARNING 04: minimum elevation drop used for Conduit 000045.1
  WARNING 04: minimum elevation drop used for Conduit 000045.2
  WARNING 04: minimum elevation drop used for Conduit 000047.1
  WARNING 04: minimum elevation drop used for Conduit 000053.1
  WARNING 04: minimum elevation drop used for Conduit 000054.1
  WARNING 04: minimum elevation drop used for Conduit 000055.1
  WARNING 04: minimum elevation drop used for Conduit 000056.1
  WARNING 04: minimum elevation drop used for Conduit 000057.1
  WARNING 04: minimum elevation drop used for Conduit 000058.1
  WARNING 04: minimum elevation drop used for Conduit 000060.1
  WARNING 04: minimum elevation drop used for Conduit 000061.1
  WARNING 04: minimum elevation drop used for Conduit 000063.1
  WARNING 04: minimum elevation drop used for Conduit 000064.1
  WARNING 04: minimum elevation drop used for Conduit 000071.1
  WARNING 04: minimum elevation drop used for Conduit 000080.1
  WARNING 04: minimum elevation drop used for Conduit 000092.1
  WARNING 04: minimum elevation drop used for Conduit 000095.1
  WARNING 04: minimum elevation drop used for Conduit 000106.1
  WARNING 04: minimum elevation drop used for Conduit 000108.1
  WARNING 04: minimum elevation drop used for Conduit 000109.1
  WARNING 04: minimum elevation drop used for Conduit 000113.1
  WARNING 04: minimum elevation drop used for Conduit 000116.1
  WARNING 04: minimum elevation drop used for Conduit 000118.1
  WARNING 04: minimum elevation drop used for Conduit 000128.1
  WARNING 04: minimum elevation drop used for Conduit 000132.2
  WARNING 04: minimum elevation drop used for Conduit 000134.2
  WARNING 04: minimum elevation drop used for Conduit 000135.1
  WARNING 04: minimum elevation drop used for Conduit 000151.1
  WARNING 04: minimum elevation drop used for Conduit 000152.1
  WARNING 04: minimum elevation drop used for Conduit 000158.2
  WARNING 04: minimum elevation drop used for Conduit 000159.1
  WARNING 04: minimum elevation drop used for Conduit 000172.1
  WARNING 04: minimum elevation drop used for Conduit 000174.1
  WARNING 04: minimum elevation drop used for Conduit 000175.1
  WARNING 04: minimum elevation drop used for Conduit 000179.1
  WARNING 04: minimum elevation drop used for Conduit 000180.2
  WARNING 04: minimum elevation drop used for Conduit 000181.2
  WARNING 04: minimum elevation drop used for Conduit 000183.2
  WARNING 04: minimum elevation drop used for Conduit 000184.2
  WARNING 04: minimum elevation drop used for Conduit 000191.1
  WARNING 04: minimum elevation drop used for Conduit 000191.2
  WARNING 04: minimum elevation drop used for Conduit 000193.1
  WARNING 04: minimum elevation drop used for Conduit 000195A.1
  WARNING 04: minimum elevation drop used for Conduit 000197.1
  WARNING 04: minimum elevation drop used for Conduit 000198.1
  WARNING 04: minimum elevation drop used for Conduit 000199.1
  WARNING 04: minimum elevation drop used for Conduit 000200.2
  WARNING 04: minimum elevation drop used for Conduit 000204.1
  WARNING 04: minimum elevation drop used for Conduit 000206.2
  WARNING 04: minimum elevation drop used for Conduit 000223.1
  WARNING 04: minimum elevation drop used for Conduit 000224.2
  WARNING 04: minimum elevation drop used for Conduit 000225.1
  WARNING 04: minimum elevation drop used for Conduit 000226.2
  WARNING 04: minimum elevation drop used for Conduit 000227.2
  WARNING 04: minimum elevation drop used for Conduit 000228.1
  WARNING 04: minimum elevation drop used for Conduit 000235.1
  WARNING 04: minimum elevation drop used for Conduit 000238.1
  WARNING 04: minimum elevation drop used for Conduit 000240.1
  WARNING 04: minimum elevation drop used for Conduit 000244.1
  WARNING 04: minimum elevation drop used for Conduit 000246.1
  WARNING 04: minimum elevation drop used for Conduit 000248.2
  WARNING 04: minimum elevation drop used for Conduit 000253.1
  WARNING 04: minimum elevation drop used for Conduit 000259.1
  WARNING 04: minimum elevation drop used for Conduit 000262.3
  WARNING 04: minimum elevation drop used for Conduit 000263.3
  WARNING 04: minimum elevation drop used for Conduit 000264.1
  WARNING 04: minimum elevation drop used for Conduit 000265.1
  WARNING 04: minimum elevation drop used for Conduit 000266.2
  WARNING 04: minimum elevation drop used for Conduit 000266_1.1
  WARNING 04: minimum elevation drop used for Conduit 000267.3
  WARNING 04: minimum elevation drop used for Conduit 000269.1
  WARNING 04: minimum elevation drop used for Conduit 000273.2
  WARNING 04: minimum elevation drop used for Conduit 000274.1
  WARNING 04: minimum elevation drop used for Conduit 000279.1
  WARNING 04: minimum elevation drop used for Conduit 000291.2
  WARNING 04: minimum elevation drop used for Conduit 000293.3
  WARNING 04: minimum elevation drop used for Conduit 000294.1
  WARNING 04: minimum elevation drop used for Conduit 000295.2
  WARNING 04: minimum elevation drop used for Conduit 000297.1
  WARNING 04: minimum elevation drop used for Conduit 000299.1
  WARNING 04: minimum elevation drop used for Conduit 000299.2
  WARNING 04: minimum elevation drop used for Conduit 000301.2
  WARNING 04: minimum elevation drop used for Conduit 000303A.2
  WARNING 04: minimum elevation drop used for Conduit 000304.1
  WARNING 04: minimum elevation drop used for Conduit 000307.1
  WARNING 04: minimum elevation drop used for Conduit 000309.2
  WARNING 04: minimum elevation drop used for Conduit 000311.1
  WARNING 04: minimum elevation drop used for Conduit 000316.1
  WARNING 04: minimum elevation drop used for Conduit 000320.1
  WARNING 04: minimum elevation drop used for Conduit 000326.2
  WARNING 04: minimum elevation drop used for Conduit 000340.2
  WARNING 04: minimum elevation drop used for Conduit 000349.1
  WARNING 04: minimum elevation drop used for Conduit 000353.1
  WARNING 08: elevation drop exceeds length for Conduit 000354.1
  WARNING 04: minimum elevation drop used for Conduit 000356.1
  WARNING 04: minimum elevation drop used for Conduit 000358.2
  WARNING 04: minimum elevation drop used for Conduit 000360.1
  WARNING 04: minimum elevation drop used for Conduit 000362.1
  WARNING 04: minimum elevation drop used for Conduit 000363.1
  WARNING 04: minimum elevation drop used for Conduit 000363_1.1
  WARNING 04: minimum elevation drop used for Conduit 000365.1
  WARNING 04: minimum elevation drop used for Conduit 000366.1
  WARNING 04: minimum elevation drop used for Conduit 000369.1
  WARNING 04: minimum elevation drop used for Conduit 000370.1
  WARNING 04: minimum elevation drop used for Conduit 000374.2
  WARNING 04: minimum elevation drop used for Conduit 000375.1
  WARNING 04: minimum elevation drop used for Conduit 000377.1
  WARNING 04: minimum elevation drop used for Conduit 000380.2
  WARNING 04: minimum elevation drop used for Conduit 000380_1.2
  WARNING 04: minimum elevation drop used for Conduit 000383.1
  WARNING 04: minimum elevation drop used for Conduit 000385.1
  WARNING 04: minimum elevation drop used for Conduit 000386.2
  WARNING 04: minimum elevation drop used for Conduit 000388.1
  WARNING 04: minimum elevation drop used for Conduit 000389.2
  WARNING 04: minimum elevation drop used for Conduit 000390.1
  WARNING 04: minimum elevation drop used for Conduit 000393.1
  WARNING 04: minimum elevation drop used for Conduit 000395.1
  WARNING 04: minimum elevation drop used for Conduit 000399.2
  WARNING 04: minimum elevation drop used for Conduit 000404.1
  WARNING 04: minimum elevation drop used for Conduit 000405.2
  WARNING 04: minimum elevation drop used for Conduit 000406.2
  WARNING 04: minimum elevation drop used for Conduit 000407.1
  WARNING 04: minimum elevation drop used for Conduit 000417.1
  WARNING 04: minimum elevation drop used for Conduit 000419.1
  WARNING 04: minimum elevation drop used for Conduit 000421.1
  WARNING 04: minimum elevation drop used for Conduit 000429.1
  WARNING 04: minimum elevation drop used for Conduit 000430.1
  WARNING 04: minimum elevation drop used for Conduit 000431.2
  WARNING 04: minimum elevation drop used for Conduit 000433.1
  WARNING 04: minimum elevation drop used for Conduit 000434.1
  WARNING 04: minimum elevation drop used for Conduit 000435.1
  WARNING 04: minimum elevation drop used for Conduit 000436.2
  WARNING 04: minimum elevation drop used for Conduit 000437.2
  WARNING 04: minimum elevation drop used for Conduit 000438.1
  WARNING 04: minimum elevation drop used for Conduit 000439.2
  WARNING 04: minimum elevation drop used for Conduit 000440.1
  WARNING 04: minimum elevation drop used for Conduit 000441.1
  WARNING 04: minimum elevation drop used for Conduit 000441.2
  WARNING 04: minimum elevation drop used for Conduit 000442.2
  WARNING 04: minimum elevation drop used for Conduit 000443.2
  WARNING 04: minimum elevation drop used for Conduit 000444.3
  WARNING 04: minimum elevation drop used for Conduit 000447.1
  WARNING 04: minimum elevation drop used for Conduit 000449.1
  WARNING 04: minimum elevation drop used for Conduit 000454.1
  WARNING 04: minimum elevation drop used for Conduit 000457.2
  WARNING 04: minimum elevation drop used for Conduit 000458.2
  WARNING 08: elevation drop exceeds length for Conduit 000462_1.3
  WARNING 04: minimum elevation drop used for Conduit 000466.1
  WARNING 04: minimum elevation drop used for Conduit 000471.1
  WARNING 04: minimum elevation drop used for Conduit 000472.2
  WARNING 04: minimum elevation drop used for Conduit 000473.2
  WARNING 04: minimum elevation drop used for Conduit 000479.2
  WARNING 04: minimum elevation drop used for Conduit 000482.2
  WARNING 04: minimum elevation drop used for Conduit 000483.1
  WARNING 04: minimum elevation drop used for Conduit 000487.2
  WARNING 04: minimum elevation drop used for Conduit 000489.1
  WARNING 04: minimum elevation drop used for Conduit 000496.1
  WARNING 04: minimum elevation drop used for Conduit 000498.1
  WARNING 04: minimum elevation drop used for Conduit 000501.1
  WARNING 04: minimum elevation drop used for Conduit 000502.1
  WARNING 04: minimum elevation drop used for Conduit 000509.1
  WARNING 04: minimum elevation drop used for Conduit 000512.1
  WARNING 04: minimum elevation drop used for Conduit 00051A.1
  WARNING 04: minimum elevation drop used for Conduit 000524.1
  WARNING 04: minimum elevation drop used for Conduit 000526.1
  WARNING 04: minimum elevation drop used for Conduit 000527.2
  WARNING 04: minimum elevation drop used for Conduit 000528.2
  WARNING 04: minimum elevation drop used for Conduit 000532.2
  WARNING 04: minimum elevation drop used for Conduit 000541.1
  WARNING 04: minimum elevation drop used for Conduit 000547.1
  WARNING 04: minimum elevation drop used for Conduit 000550.1
  WARNING 04: minimum elevation drop used for Conduit 000551.1
  WARNING 04: minimum elevation drop used for Conduit 000552.1
  WARNING 04: minimum elevation drop used for Conduit 000554.1
  WARNING 04: minimum elevation drop used for Conduit 000560.1
  WARNING 04: minimum elevation drop used for Conduit 000562.1
  WARNING 04: minimum elevation drop used for Conduit 000563.2
  WARNING 04: minimum elevation drop used for Conduit 000564.1
  WARNING 04: minimum elevation drop used for Conduit 000566.1
  WARNING 04: minimum elevation drop used for Conduit 000568.1
  WARNING 04: minimum elevation drop used for Conduit 000576.1
  WARNING 04: minimum elevation drop used for Conduit 000581.1
  WARNING 04: minimum elevation drop used for Conduit 000581.2
  WARNING 04: minimum elevation drop used for Conduit 000582.1
  WARNING 04: minimum elevation drop used for Conduit 000584.2
  WARNING 04: minimum elevation drop used for Conduit 000585.1
  WARNING 04: minimum elevation drop used for Conduit 000590.1
  WARNING 04: minimum elevation drop used for Conduit 000595.1
  WARNING 04: minimum elevation drop used for Conduit 000596.2
  WARNING 04: minimum elevation drop used for Conduit 000597.2
  WARNING 04: minimum elevation drop used for Conduit 000599.2
  WARNING 04: minimum elevation drop used for Conduit 000600.2
  WARNING 04: minimum elevation drop used for Conduit 000606.2
  WARNING 04: minimum elevation drop used for Conduit 000610.2
  WARNING 04: minimum elevation drop used for Conduit 000620.1
  WARNING 04: minimum elevation drop used for Conduit 000623.1
  WARNING 04: minimum elevation drop used for Conduit 000625.1
  WARNING 04: minimum elevation drop used for Conduit 000627.1
  WARNING 04: minimum elevation drop used for Conduit 000628.1
  WARNING 04: minimum elevation drop used for Conduit 000631.1
  WARNING 04: minimum elevation drop used for Conduit 000635.2
  WARNING 04: minimum elevation drop used for Conduit 000638.1
  WARNING 04: minimum elevation drop used for Conduit 000642.2
  WARNING 04: minimum elevation drop used for Conduit 000656.3
  WARNING 04: minimum elevation drop used for Conduit 000657.1
  WARNING 04: minimum elevation drop used for Conduit 000658.1
  WARNING 04: minimum elevation drop used for Conduit 000658.2
  WARNING 04: minimum elevation drop used for Conduit 000659.1
  WARNING 04: minimum elevation drop used for Conduit 000660.2
  WARNING 04: minimum elevation drop used for Conduit 000662.2
  WARNING 04: minimum elevation drop used for Conduit 000663.1
  WARNING 04: minimum elevation drop used for Conduit 000665.2
  WARNING 04: minimum elevation drop used for Conduit 000666.1
  WARNING 04: minimum elevation drop used for Conduit 000669.1
  WARNING 04: minimum elevation drop used for Conduit 000677.1
  WARNING 04: minimum elevation drop used for Conduit 000678.1
  WARNING 04: minimum elevation drop used for Conduit 000681.1
  WARNING 04: minimum elevation drop used for Conduit 000682.1
  WARNING 04: minimum elevation drop used for Conduit 000686.2
  WARNING 04: minimum elevation drop used for Conduit 000688.2
  WARNING 04: minimum elevation drop used for Conduit 000689.1
  WARNING 04: minimum elevation drop used for Conduit 000690.1
  WARNING 04: minimum elevation drop used for Conduit 000691.1
  WARNING 04: minimum elevation drop used for Conduit 000692.1
  WARNING 08: elevation drop exceeds length for Conduit 000703_1.1
  WARNING 08: elevation drop exceeds length for Conduit 000705.1
  WARNING 04: minimum elevation drop used for Conduit 000708.1
  WARNING 04: minimum elevation drop used for Conduit 000716.2
  WARNING 04: minimum elevation drop used for Conduit 000719.1
  WARNING 04: minimum elevation drop used for Conduit 000723.2
  WARNING 04: minimum elevation drop used for Conduit 000724.1
  WARNING 04: minimum elevation drop used for Conduit 000725.1
  WARNING 04: minimum elevation drop used for Conduit 000730.1
  WARNING 04: minimum elevation drop used for Conduit 000732.1
  WARNING 04: minimum elevation drop used for Conduit 000735.1
  WARNING 04: minimum elevation drop used for Conduit 000747.1
  WARNING 04: minimum elevation drop used for Conduit 000750.1
  WARNING 04: minimum elevation drop used for Conduit 000752.1
  WARNING 04: minimum elevation drop used for Conduit 000753.1
  WARNING 04: minimum elevation drop used for Conduit 000755.2
  WARNING 04: minimum elevation drop used for Conduit 000758.1
  WARNING 04: minimum elevation drop used for Conduit 000759.1
  WARNING 04: minimum elevation drop used for Conduit 000760.1
  WARNING 04: minimum elevation drop used for Conduit 000761.1
  WARNING 04: minimum elevation drop used for Conduit 000765.2
  WARNING 04: minimum elevation drop used for Conduit 000766.1
  WARNING 04: minimum elevation drop used for Conduit 000766.2
  WARNING 04: minimum elevation drop used for Conduit 000771.1
  WARNING 04: minimum elevation drop used for Conduit 000772.1
  WARNING 04: minimum elevation drop used for Conduit 000775.2
  WARNING 04: minimum elevation drop used for Conduit 000776.1
  WARNING 04: minimum elevation drop used for Conduit 000779.1
  WARNING 04: minimum elevation drop used for Conduit 000780.1
  WARNING 04: minimum elevation drop used for Conduit 000784.1
  WARNING 04: minimum elevation drop used for Conduit 000785.1
  WARNING 04: minimum elevation drop used for Conduit 000790.2
  WARNING 04: minimum elevation drop used for Conduit 000791.2
  WARNING 04: minimum elevation drop used for Conduit 000794.1
  WARNING 04: minimum elevation drop used for Conduit 000796.1
  WARNING 04: minimum elevation drop used for Conduit 000799.1
  WARNING 04: minimum elevation drop used for Conduit 000800.1
  WARNING 04: minimum elevation drop used for Conduit 000801.2
  WARNING 04: minimum elevation drop used for Conduit 000802.2
  WARNING 04: minimum elevation drop used for Conduit 000804.1
  WARNING 04: minimum elevation drop used for Conduit 000809.1
  WARNING 04: minimum elevation drop used for Conduit 000810.2
  WARNING 04: minimum elevation drop used for Conduit 000815.1
  WARNING 04: minimum elevation drop used for Conduit 000818.1
  WARNING 04: minimum elevation drop used for Conduit 000819.2
  WARNING 04: minimum elevation drop used for Conduit 000821.1
  WARNING 04: minimum elevation drop used for Conduit 000821A.1
  WARNING 04: minimum elevation drop used for Conduit 000823.2
  WARNING 04: minimum elevation drop used for Conduit 000829.1
  WARNING 04: minimum elevation drop used for Conduit 000830.1
  WARNING 04: minimum elevation drop used for Conduit 000832.2
  WARNING 04: minimum elevation drop used for Conduit 000834.1
  WARNING 04: minimum elevation drop used for Conduit 000837.1
  WARNING 04: minimum elevation drop used for Conduit 000839.2
  WARNING 04: minimum elevation drop used for Conduit 000840.1
  WARNING 04: minimum elevation drop used for Conduit 000844.1
  WARNING 04: minimum elevation drop used for Conduit 000848.1
  WARNING 04: minimum elevation drop used for Conduit 000849.1
  WARNING 04: minimum elevation drop used for Conduit 000853.1
  WARNING 04: minimum elevation drop used for Conduit 000854.1
  WARNING 04: minimum elevation drop used for Conduit 000859.1
  WARNING 04: minimum elevation drop used for Conduit 000860.1
  WARNING 04: minimum elevation drop used for Conduit 000862.2
  WARNING 04: minimum elevation drop used for Conduit 000864.1
  WARNING 04: minimum elevation drop used for Conduit 000866.2
  WARNING 04: minimum elevation drop used for Conduit 000869.2
  WARNING 04: minimum elevation drop used for Conduit 000870.1
  WARNING 04: minimum elevation drop used for Conduit 000871.2
  WARNING 04: minimum elevation drop used for Conduit 000872.1
  WARNING 03: negative offset ignored for Link 1371.1
  WARNING 04: minimum elevation drop used for Conduit 2330.1
  WARNING 04: minimum elevation drop used for Conduit 9785.2
  WARNING 02: maximum depth increased for Node 000679
  
  *************
  Element Count
  *************
  Number of rain gages ...... 1
  Number of subcatchments ... 146
  Number of nodes ........... 1047
  Number of links ........... 1122
  Number of pollutants ...... 0
  Number of land uses ....... 0
  
  
  ****************
  Raingage Summary
  ****************
                                                      Data       Recording
  Name                 Data Source                    Type       Interval 
  ------------------------------------------------------------------------
  1                    SCS_FL_MOD                     INTENSITY   15 min.
  
  
  ********************
  Subcatchment Summary
  ********************
  Name                       Area     Width   %Imperv    %Slope Rain Gage            Outlet              
  -----------------------------------------------------------------------------------------------------------
  000171_PRIVATE             0.00      0.00      0.00    0.0000 1                    000171              
  1                          0.00      0.00      0.00    0.0000 1                    000634A             
  10                         0.00      0.00      0.00    0.4983 1                    2675A               
  10_1_1                     0.00      0.00      0.00    0.2346 1                    2677                
  10_1_2                     0.00      0.00      0.00    0.1615 1                    000359_1            
  10_1_3                     0.00      0.00      0.00    0.5759 1                    000361_1            
  10_1_5                     0.00      0.00      0.00    0.5575 1                    000357_1            
  10_1_6                     0.00      0.00      0.00    0.4776 1                    000352_1A           
  10_1_7                     0.00      0.00      0.00    0.4329 1                    2663                
  12                         0.00      0.00      0.00    0.0000 1                    000100              
  13                         0.00      0.00      0.00    0.3772 1                    000484_1            
  13_1                       0.00      0.00      0.00    1.5726 1                    000363_1            
  13_2                       0.00      0.00      0.00    0.2112 1                    000370_1            
  13_2_1                     0.00      0.00      0.00    0.5482 1                    000369_1            
  13_2_2                     0.00      0.00      0.00    0.0000 1                    000156              
  14                         0.00      0.00      0.00    0.0000 1                    000170B             
  15                         0.00      0.00      0.00    0.0000 1                    1391                
  15C                        0.00      0.00      0.00    0.4889 1                    1373                
  15C_1                      0.00      0.00      0.00    0.1730 1                    1375                
  15C_1_1                    0.00      0.00      0.00    0.2814 1                    1420                
  15C_1_1_1                  0.00      0.00      0.00    0.0029 1                    1399                
  15C_1_1_2                  0.00      0.00      0.00    0.0873 1                    1402                
  15C_1_1_3                  0.00      0.00      0.00    1.1570 1                    1419                
  15C_1_1_3_1                0.00      0.00      0.00    0.2814 1                    1420                
  15C_1_2                    0.00      0.00      0.00    0.0029 1                    1399                
  16                         0.00      0.00      0.00    0.0000 1                    000097              
  17                         0.00      0.00      0.00    0.0000 1                    000051              
  17_1                       0.00      0.00      0.00    0.3342 1                    1555                
  17_2                       0.00      0.00      0.00    0.2269 1                    1345                
  18                         0.00      0.00      0.00    0.5786 1                    1597                
  18_1                       0.00      0.00      0.00    0.1593 1                    000695              
  18_2                       0.00      0.00      0.00    0.1861 1                    1619                
  18_3                       0.00      0.00      0.00    0.7060 1                    1621                
  19                         0.00      0.00      0.00    0.0000 1                    000652              
  2                          0.00      0.00      0.00    0.0222 1                    1815                
  20                         0.00      0.00      0.00    0.0000 1                    000805B             
  21                         0.00      0.00      0.00    0.0000 1                    000654              
  21_1                       0.00      0.00      0.00    0.0625 1                    2293                
  21_2                       0.00      0.00      0.00    0.0285 1                    2513                
  21_2_1                     0.00      0.00      0.00    0.1833 1                    2514                
  21_2_1_1                   0.00      0.00      0.00    0.1185 1                    2515                
  21_2_1_1_1                 0.00      0.00      0.00    0.4182 1                    2516                
  2_1                        0.00      0.00      0.00    2.4263 1                    2128                
  2_10                       0.00      0.00      0.00    0.4232 1                    000259_1A           
  2_11                       0.00      0.00      0.00    2.5904 1                    2416                
  2_12                       0.00      0.00      0.00    0.0000 1                    1849                
  2_13                       0.00      0.00      0.00    0.1956 1                    2379                
  2_14                       0.00      0.00      0.00    0.7099 1                    2382                
  2_15                       0.00      0.00      0.00    0.5452 1                    2257                
  2_16                       0.00      0.00      0.00    2.3177 1                    1833                
  2_17                       0.00      0.00      0.00    0.4750 1                    2050                
  2_18                       0.00      0.00      0.00    0.7956 1                    1835                
  2_19                       0.00      0.00      0.00    1.1927 1                    1819                
  2_2                        0.00      0.00      0.00    0.0000 1                    000232_1            
  2_3                        0.00      0.00      0.00    0.0000 1                    2352                
  2_4                        0.00      0.00      0.00    0.0142 1                    2350                
  2_5                        0.00      0.00      0.00    0.3465 1                    2340                
  2_6                        0.00      0.00      0.00    1.5498 1                    000474_1            
  2_7                        0.00      0.00      0.00    0.0000 1                    000294_1            
  2_8                        0.00      0.00      0.00    0.0000 1                    2420                
  2_9                        0.00      0.00      0.00    0.7288 1                    000266_1            
  30                         0.00      0.00      0.00    0.0000 1                    000517              
  33                         0.00      0.00      0.00    0.0000 1                    000305              
  34                         0.00      0.00      0.00    0.0000 1                    000709              
  34_1                       0.00      0.00      0.00    0.0000 1                    000709              
  36                         0.00      0.00      0.00    0.0000 1                    000824              
  37                         0.00      0.00      0.00    0.0000 1                    000195              
  38                         0.00      0.00      0.00    0.0000 1                    000245              
  39                         0.00      0.00      0.00    0.0000 1                    000717              
  4                          0.00      0.00      0.00    0.0000 1                    000401_1            
  40                         0.00      0.00      0.00    0.0000 1                    000593A             
  41                         0.00      0.00      0.00    0.0000 1                    000359              
  42                         0.00      0.00      0.00    0.3512 1                    9793                
  43                         0.00      0.00      0.00    0.0000 1                    000460              
  44                         0.00      0.00      0.00    0.0000 1                    000068              
  45                         0.00      0.00      0.00    0.0000 1                    5225                
  45_1                       0.00      0.00      0.00    0.3183 1                    5604                
  48                         0.00      0.00      0.00    0.0000 1                    000420              
  49                         0.00      0.00      0.00    0.0000 1                    000756A             
  4_1                        0.00      0.00      0.00    0.0000 1                    2221A               
  4_2                        0.00      0.00      0.00    0.1338 1                    2012                
  4_4                        0.00      0.00      0.00    0.0518 1                    2207                
  5                          0.00      0.00      0.00    0.8155 1                    1798                
  51                         0.00      0.00      0.00    0.0000 1                    000470B             
  52                         0.00      0.00      0.00    0.0000 1                    000490              
  5_1                        0.00      0.00      0.00    0.0000 1                    000643B             
  5_2                        0.00      0.00      0.00    0.3731 1                    000461_1            
  5_3                        0.00      0.00      0.00    0.0000 1                    000456_1            
  5_4                        0.00      0.00      0.00    1.2532 1                    000096_1            
  5_5                        0.00      0.00      0.00    0.4052 1                    2082                
  5_6                        0.00      0.00      0.00    0.0000 1                    000091_1            
  5_7                        0.00      0.00      0.00    0.1768 1                    1801                
  5_8                        0.00      0.00      0.00    0.2353 1                    1735                
  5_9                        0.00      0.00      0.00    0.5279 1                    000036_1            
  5_9_1                      0.00      0.00      0.00    0.2353 1                    1735                
  5_9_2                      0.00      0.00      0.00    0.0685 1                    1733                
  5_9_3                      0.00      0.00      0.00    0.0000 1                    1692                
  6                          0.00      0.00      0.00    0.0805 1                    1660                
  6_1                        0.00      0.00      0.00    0.1274 1                    000099_1            
  6_2                        0.00      0.00      0.00    0.0112 1                    1659                
  6_3                        0.00      0.00      0.00    1.4935 1                    1671                
  6_3_1                      0.00      0.00      0.00    0.4393 1                    000037_1A           
  6_3_2                      0.00      0.00      0.00    0.4269 1                    000049_1            
  6_3_2_1                    0.00      0.00      0.00    0.0708 1                    000025_1            
  6_3_2_2                    0.00      0.00      0.00    2.4072 1                    000055_1            
  6_3_2_3                    0.00      0.00      0.00    0.6225 1                    000050_1            
  6_3_2_4                    0.00      0.00      0.00    0.6092 1                    000048_1            
  6_3_2_5                    0.00      0.00      0.00    0.2420 1                    9787                
  6_3_2_5_1                  0.00      0.00      0.00    0.7832 1                    000059_1            
  6_3_2_5_2                  0.00      0.00      0.00    1.5635 1                    000057_1            
  6_3_2_5_3                  0.00      0.00      0.00    0.0000 1                    9785                
  6_3_2_5_3_1                0.00      0.00      0.00    0.0000 1                    9788                
  6_4                        0.00      0.00      0.00    0.0360 1                    1681                
  7                          0.00      0.00      0.00    0.1209 1                    1720                
  7_1                        0.00      0.00      0.00    0.1642 1                    000160_1            
  7_2                        0.00      0.00      0.00    0.2642 1                    2099                
  7_3                        0.00      0.00      0.00    0.1836 1                    2063                
  7_4                        0.00      0.00      0.00    0.0000 1                    2058                
  7_5                        0.00      0.00      0.00    0.0000 1                    2055                
  7_6                        0.00      0.00      0.00    0.0000 1                    2052                
  7_7                        0.00      0.00      0.00    0.0000 1                    1775                
  8                          0.00      0.00      0.00    0.0000 1                    000655              
  9                          0.00      0.00      0.00    0.0000 1                    000005              
  LS10                       0.00      0.00      0.00    0.2462 1                    2674A               
  LS10B                      0.00      0.00      0.00    0.0000 1                    000154              
  LS11                       0.00      0.00      0.00    0.0000 1                    000603              
  LS22                       0.00      0.00      0.00    0.0000 1                    000513              
  LS23                       0.00      0.00      0.00    0.0000 1                    000604              
  LS24                       0.00      0.00      0.00    0.0000 1                    000158B             
  LS25                       0.00      0.00      0.00    0.0000 1                    000387              
  LS26                       0.00      0.00      0.00    0.0000 1                    000530              
  LS27                       0.00      0.00      0.00    0.0000 1                    000667              
  LS28                       0.00      0.00      0.00    1.0800 1                    000268              
  LS31                       0.00      0.00      0.00    0.0000 1                    000793              
  LS32                       0.00      0.00      0.00    0.0000 1                    000459              
  LS35_1                     0.00      0.00      0.00    0.0000 1                    000091              
  LS39                       0.00      0.00      0.00    0.0000 1                    000717              
  LS4                        0.00      0.00      0.00    0.0000 1                    000195_1            
  LS4-1                      0.00      0.00      0.00    0.7979 1                    000202_1            
  LS4-2                      0.00      0.00      0.00    0.3080 1                    2305                
  LS4-3                      0.00      0.00      0.00    0.0196 1                    1929                
  LS4-4                      0.00      0.00      0.00    0.0264 1                    1928                
  LS4-5                      0.00      0.00      0.00    0.1948 1                    2107                
  LS46                       0.00      0.00      0.00    0.0000 1                    000731              
  LS47                       0.00      0.00      0.00    0.0000 1                    000827              
  LS50                       0.00      0.00      0.00    0.0000 1                    000786              
  
  
  ************
  Node Summary
  ************
                                           Invert      Max.    Ponded    External
  Name                 Type                 Elev.     Depth      Area    Inflow  
  -------------------------------------------------------------------------------
  000001               JUNCTION             19.00      3.00       0.0
  000002               JUNCTION             21.00      3.00       0.0
  000003               JUNCTION             20.00      3.00       0.0
  000004               JUNCTION             19.00      3.00       0.0
  000006               JUNCTION             19.00      3.00       0.0
  000007               JUNCTION             22.00      3.00       0.0
  000008               JUNCTION             21.00      3.00       0.0
  000009               JUNCTION             15.00      3.00       0.0
  000010               JUNCTION             16.00      3.00       0.0
  000011               JUNCTION             15.00      3.00       0.0
  000012               JUNCTION             15.00      3.00       0.0
  000013               JUNCTION             15.00      3.00       0.0
  000014               JUNCTION             12.58      9.42       0.0
  000015               JUNCTION             16.00      3.00       0.0
  000016               JUNCTION             14.00      3.00       0.0
  000017               JUNCTION             15.00      3.00       0.0
  000018               JUNCTION             13.00      3.00       0.0
  000019               JUNCTION             14.00      3.00       0.0
  000020               JUNCTION             14.00      3.00       0.0
  000020_1             JUNCTION             32.86      5.46       0.0
  000021               JUNCTION             25.14      5.25       0.0
  000022               JUNCTION             21.00      3.00       0.0
  000023               JUNCTION             31.03      3.00       0.0
  000024               JUNCTION             23.00      3.00       0.0
  000025               JUNCTION             19.00      3.00       0.0
  000025_1             JUNCTION             29.79      8.10  256585.4    Yes
  000026               JUNCTION             20.00      3.00       0.0
  000027               JUNCTION             18.00      3.00       0.0
  000027_1             JUNCTION             31.83      3.47       0.0
  000028               JUNCTION             20.00      3.00       0.0
  000029               JUNCTION             20.00      3.00       0.0
  000029A              JUNCTION             20.00      3.00       0.0
  000030               JUNCTION             19.00      3.00       0.0
  000031               JUNCTION             17.00      3.00       0.0
  000032               JUNCTION              2.00      3.00       0.0
  000033               JUNCTION              2.00      3.00       0.0
  000034               JUNCTION             34.00      3.00       0.0
  000034_1             JUNCTION             21.06      9.39       0.0
  000035               JUNCTION             34.00      3.00       0.0
  000036               JUNCTION             30.00      3.00       0.0
  000036A              JUNCTION             31.00      3.00       0.0
  000036_1             JUNCTION             26.16      5.25  150846.9    Yes
  000037               JUNCTION             29.00      3.00       0.0
  000037_1A            JUNCTION             22.98      7.23  223837.3    Yes
  000038               JUNCTION             26.00      3.00       0.0
  000038_1             JUNCTION             22.60      8.36       0.0
  000039               JUNCTION             25.00      3.00       0.0
  000040               JUNCTION             23.00      3.00       0.0
  000041               JUNCTION             23.00      3.00       0.0
  000042               JUNCTION             23.00      3.00       0.0
  000043               JUNCTION             24.00      3.00       0.0
  000044               JUNCTION             24.00      3.00       0.0
  000045               JUNCTION             24.00      3.00       0.0
  000046               JUNCTION             24.00      3.00       0.0
  000047               JUNCTION             24.00      3.00       0.0
  000048               JUNCTION             22.00      3.00       0.0
  000048_1             JUNCTION             26.61      4.66  232070.2    Yes
  000049               JUNCTION             24.00      3.00       0.0
  000049_1             JUNCTION             26.16      3.98  446581.8    Yes
  000050               JUNCTION             25.00      3.00       0.0
  000050_1             JUNCTION             27.75      4.64   70015.2    Yes
  000053               JUNCTION             33.00      3.00       0.0
  000054A              JUNCTION             33.00      3.00       0.0
  000054_1A            JUNCTION             27.88      4.72       0.0
  000055               JUNCTION             33.00      3.00       0.0
  000055_1             JUNCTION             29.17      8.51  125626.0    Yes
  000056               JUNCTION             33.00      3.00       0.0
  000057               JUNCTION             33.00      3.00       0.0
  000057_1             JUNCTION             23.64      5.36  595803.4    Yes
  000058               JUNCTION             33.00      3.00       0.0
  000059               JUNCTION             33.00      3.00       0.0
  000059_1             JUNCTION             24.74      6.75  863406.7    Yes
  000060               JUNCTION             33.00      3.00       0.0
  000061               JUNCTION             33.00      3.00       0.0
  000062               JUNCTION             29.00      3.00       0.0
  000063               JUNCTION             30.00      3.00       0.0
  000063_1             JUNCTION             25.10      6.39       0.0
  000064               JUNCTION             30.00      3.00       0.0
  000065               JUNCTION             39.00      3.00       0.0
  000066               JUNCTION             27.00      3.00       0.0
  000067               JUNCTION             30.00      3.00       0.0
  000068A              JUNCTION             20.00      3.00       0.0
  000069               JUNCTION             21.00      3.00       0.0
  000070               JUNCTION             20.00      3.00       0.0
  000071               JUNCTION             20.00      3.00       0.0
  000072               JUNCTION             33.00      3.00       0.0
  000073               JUNCTION             29.00      3.00       0.0
  000073_1A            JUNCTION             28.76      5.61       0.0
  000074               JUNCTION             27.00      3.00       0.0
  000075               JUNCTION             26.00      3.00       0.0
  000075_1             JUNCTION             29.36      5.85       0.0
  000076               JUNCTION             27.00      3.00       0.0
  000077               JUNCTION             16.04      7.96       0.0
  000078               JUNCTION             17.36      5.64       0.0
  000078_1             JUNCTION             24.71      6.06       0.0
  000079               JUNCTION             19.38      2.62       0.0
  000080               JUNCTION             21.23      2.77       0.0
  000081               JUNCTION             27.00      3.00       0.0
  000082               JUNCTION             24.00      3.00       0.0
  000083               JUNCTION             32.00      3.00       0.0
  000084               JUNCTION             24.89      3.00       0.0
  000085               JUNCTION             23.00      3.00       0.0
  000086               JUNCTION             24.00      3.00       0.0
  000087               JUNCTION             37.00      3.00       0.0
  000088               JUNCTION             29.00      3.00       0.0
  000090_1A            JUNCTION             22.77     10.65       0.0
  000091A              JUNCTION             28.00      3.00       0.0
  000091_1             JUNCTION             22.06     11.06  843404.1    Yes
  000092               JUNCTION             33.00      3.00       0.0
  000093               JUNCTION             16.00      3.00       0.0
  000094A              JUNCTION             37.00      3.00       0.0
  000094_1             JUNCTION             22.09     11.03       0.0
  000095A              JUNCTION             33.00      3.00       0.0
  000096               JUNCTION             33.00      3.00       0.0
  000096_1             JUNCTION             20.72     13.18  262736.0    Yes
  000097A              JUNCTION             32.00      3.00       0.0
  000098               JUNCTION             30.00      3.00       0.0
  000099_1             JUNCTION             25.40      5.13  171056.0    Yes
  000100A              JUNCTION             33.00      3.00       0.0
  000101               JUNCTION             42.00      3.00       0.0
  000102               JUNCTION             17.00      3.00       0.0
  000103               JUNCTION             23.00      3.00       0.0
  000105_1             JUNCTION             26.85      6.75       0.0
  000106               JUNCTION             20.00      3.00       0.0
  000108               JUNCTION             20.00      3.00       0.0
  000109               JUNCTION             20.00      3.00       0.0
  000109_1             JUNCTION             23.32      8.58       0.0
  000110               JUNCTION             19.00      3.00       0.0
  000112               JUNCTION             20.00      3.00       0.0
  000113               JUNCTION             20.00      3.00       0.0
  000114               JUNCTION             26.00      3.00       0.0
  000114_1             JUNCTION             27.95      5.80       0.0
  000115               JUNCTION             25.00      3.00       0.0
  000116               JUNCTION             28.00      3.00       0.0
  000117               JUNCTION             28.00      3.00       0.0
  000118               JUNCTION             27.00      3.00       0.0
  000119               JUNCTION             27.00      3.00       0.0
  000120               JUNCTION             27.00      3.00       0.0
  000121               JUNCTION             26.09      3.00       0.0
  000122               JUNCTION             28.00      3.00       0.0
  000123               JUNCTION             23.00      3.00       0.0
  000124               JUNCTION              2.18      3.00       0.0
  000126               JUNCTION              1.00      3.00       0.0
  000128               JUNCTION             20.00      3.00       0.0
  000129               JUNCTION             20.00      3.00       0.0
  000130               JUNCTION             17.00      3.00       0.0
  000131               JUNCTION             19.00      3.00       0.0
  000132               JUNCTION             20.00      3.00       0.0
  000133               JUNCTION             21.00      3.00       0.0
  000134               JUNCTION             17.00      3.00       0.0
  000135               JUNCTION             22.00      3.00       0.0
  000136               JUNCTION             23.00      3.00       0.0
  000136_1             JUNCTION             29.75      3.62       0.0
  000141_1             JUNCTION             11.63      4.77       0.0
  000151               JUNCTION             23.00      3.00       0.0
  000151_1             JUNCTION             40.74      4.30       0.0
  000152               JUNCTION             23.00      3.00       0.0
  000152_1             JUNCTION             47.25      3.15       0.0
  000153               JUNCTION             23.00      3.00       0.0
  000154A              JUNCTION             21.00      3.00       0.0
  000154_1A            JUNCTION             23.64      6.66       0.0
  000155               JUNCTION             27.00      3.00       0.0
  000155_1             JUNCTION             23.06      6.47       0.0
  000156A              JUNCTION             12.03      9.97       0.0
  000158               JUNCTION             20.00      3.00       0.0
  000158A              JUNCTION             20.00      3.00       0.0
  000159               JUNCTION             20.00      3.00       0.0
  000160_1             JUNCTION             20.62      9.59  497319.0    Yes
  000167               JUNCTION             27.00      3.00       0.0
  000168               JUNCTION             25.00      3.00       0.0
  000169               JUNCTION             23.00      3.00       0.0
  000170A              JUNCTION             20.00      3.00       0.0
  000172               JUNCTION             18.00      3.00       0.0
  000173               JUNCTION             15.00      3.00       0.0
  000174               JUNCTION             15.00      3.00       0.0
  000175A              JUNCTION             14.65      3.00       0.0
  000176A              JUNCTION             14.65      3.00       0.0
  000177               JUNCTION             19.00      3.00       0.0
  000178               JUNCTION             17.00      3.00       0.0
  000179               JUNCTION             18.00      3.00       0.0
  000180               JUNCTION             18.00      3.00       0.0
  000181               JUNCTION             18.00      3.00       0.0
  000181_1             JUNCTION             18.81     11.12       0.0
  000182               JUNCTION             18.00      3.00       0.0
  000182_1             JUNCTION             17.76     10.99       0.0
  000183               JUNCTION             18.00      3.00       0.0
  000184               JUNCTION             18.00      3.00       0.0
  000185               JUNCTION             17.00      3.00       0.0
  000186               JUNCTION             16.00      3.00       0.0
  000187               JUNCTION             15.00      3.00       0.0
  000188               JUNCTION             16.00      3.00       0.0
  000189A              JUNCTION             19.00      3.00       0.0
  000190               JUNCTION             18.00      3.00       0.0
  000191               JUNCTION             24.00      3.00       0.0
  000192               JUNCTION             24.00      3.00       0.0
  000193               JUNCTION             18.00      3.00       0.0
  000194               JUNCTION             13.00      3.00       0.0
  000195A              JUNCTION             16.00      3.00       0.0
  000195_1             JUNCTION             14.24     11.76 1273993.9    Yes
  000196               JUNCTION             20.00      3.00       0.0
  000197               JUNCTION             19.00      3.00       0.0
  000198               JUNCTION             20.00      3.00       0.0
  000199               JUNCTION             20.00      3.00       0.0
  000200               JUNCTION             20.00      3.00       0.0
  000201               JUNCTION             17.00      3.00       0.0
  000202               JUNCTION             20.00      3.00       0.0
  000202_1             JUNCTION             14.56     12.44 2022435.8    Yes
  000203               JUNCTION             21.00      3.00       0.0
  000204               JUNCTION             18.00      3.00       0.0
  000205               JUNCTION             19.00      3.00       0.0
  000206               JUNCTION             21.00      3.00       0.0
  000206_1             JUNCTION             19.30     11.07       0.0
  000207               JUNCTION             19.00      3.00       0.0
  000208               JUNCTION             15.00      3.00       0.0
  000209               JUNCTION             25.00      3.00       0.0
  000210               JUNCTION             24.00      3.00       0.0
  000214               JUNCTION             19.00      3.00       0.0
  000216               JUNCTION             23.00      3.00       0.0
  000217               JUNCTION             25.00      3.00       0.0
  000218               JUNCTION             24.00      3.00       0.0
  000218_1             JUNCTION              1.97      3.03       0.0
  000219               JUNCTION             22.00      3.00       0.0
  000219_1             JUNCTION              3.87      6.08       0.0
  000220               JUNCTION             24.00      3.00       0.0
  000221               JUNCTION             25.00      3.00       0.0
  000223               JUNCTION             30.00      3.00       0.0
  000224               JUNCTION             30.00      3.00       0.0
  000225               JUNCTION             30.00      3.00       0.0
  000226               JUNCTION             30.00      3.00       0.0
  000227               JUNCTION             30.00      3.00       0.0
  000228               JUNCTION             34.00      3.00       0.0
  000229               JUNCTION             34.00      3.00       0.0
  000230               JUNCTION             14.65      3.00       0.0
  000232               JUNCTION             18.00      3.00       0.0
  000232_1             JUNCTION             10.17      3.00  229051.4    Yes
  000234               JUNCTION             30.00      3.00       0.0
  000234_1             JUNCTION              7.85      4.15       0.0
  000235               JUNCTION             29.00      3.00       0.0
  000236               JUNCTION             33.00      3.00       0.0
  000237               JUNCTION             34.00      3.00       0.0
  000238               JUNCTION             43.00      3.00       0.0
  000239               JUNCTION             43.00      3.00       0.0
  000240               JUNCTION             31.00      3.00       0.0
  000240AA             JUNCTION             31.00      3.00       0.0
  000241               JUNCTION             37.00      3.00       0.0
  000242               JUNCTION             33.00      3.00       0.0
  000244               JUNCTION             26.00      3.00       0.0
  000245A              JUNCTION             47.00      3.00       0.0
  000246               JUNCTION             39.00      3.00       0.0
  000247               JUNCTION             27.21      3.00       0.0
  000248               JUNCTION             21.00      3.00       0.0
  000249               JUNCTION             27.57      3.00       0.0
  000250               JUNCTION             22.00      3.00       0.0
  000251A              JUNCTION             21.00      3.00       0.0
  000252               JUNCTION             21.00      3.00       0.0
  000253               JUNCTION             22.00      3.00       0.0
  000254               JUNCTION             21.00      3.00       0.0
  000255               JUNCTION             27.58      3.00       0.0
  000256A              JUNCTION             20.00      3.00       0.0
  000257A              JUNCTION             15.00      3.00       0.0
  000258               JUNCTION             20.00      3.00       0.0
  000258_1             JUNCTION              1.66     10.34       0.0
  000259               JUNCTION             21.00      3.00       0.0
  000259_1A            JUNCTION             10.30      9.30  809812.6    Yes
  000260               JUNCTION             16.00      3.00       0.0
  000260_1             JUNCTION             10.80      6.33       0.0
  000261               JUNCTION             17.00      3.00       0.0
  000262               JUNCTION             20.00      3.00       0.0
  000263               JUNCTION             20.00      3.00       0.0
  000264               JUNCTION             21.00      3.00       0.0
  000265               JUNCTION             21.00      3.00       0.0
  000266               JUNCTION             21.00      3.00       0.0
  000266_1             JUNCTION             11.85     10.15 2640795.2    Yes
  000267               JUNCTION             21.00      3.00       0.0
  000267_1             JUNCTION             11.85      7.66       0.0
  000268               JUNCTION             21.00      3.00  714316.5    Yes
  000269               JUNCTION             18.00      3.00       0.0
  000270               JUNCTION             19.00      3.00       0.0
  000271               JUNCTION             26.00      3.00       0.0
  000272               JUNCTION             32.00      3.00       0.0
  000273               JUNCTION             32.00      3.00       0.0
  000274               JUNCTION             39.00      3.00       0.0
  000275               JUNCTION             29.00      3.00       0.0
  000276               JUNCTION             31.00      3.00       0.0
  000277               JUNCTION             30.00      3.00       0.0
  000278               JUNCTION             28.00      3.00       0.0
  000279               JUNCTION             28.00      3.00       0.0
  000280               JUNCTION             30.00      3.00       0.0
  000281               JUNCTION             31.00      3.00       0.0
  000282               JUNCTION             28.41      3.00       0.0
  000283               JUNCTION             27.96      3.00       0.0
  000286               JUNCTION             27.48      3.00       0.0
  000287               JUNCTION             27.54      3.00       0.0
  000288               JUNCTION             27.37      3.00       0.0
  000289               JUNCTION             27.58      3.00       0.0
  000291               JUNCTION             28.00      3.00       0.0
  000292               JUNCTION             26.37      3.00       0.0
  000293               JUNCTION             28.00      3.00       0.0
  000294               JUNCTION             28.00      3.00       0.0
  000294_1             JUNCTION             13.48      4.52  313773.6    Yes
  000295               JUNCTION             28.00      3.00       0.0
  000296               JUNCTION             32.00      3.00       0.0
  000297               JUNCTION             27.12      3.00       0.0
  000298               JUNCTION             27.12      3.00       0.0
  000299               JUNCTION             32.00      3.00       0.0
  000300               JUNCTION             32.00      3.00       0.0
  000301               JUNCTION             32.00      3.00       0.0
  000302               JUNCTION             32.00      3.00       0.0
  000303               JUNCTION             17.00      3.00       0.0
  000303A              JUNCTION             16.00      3.00       0.0
  000304               JUNCTION             16.00      3.00       0.0
  000306               JUNCTION             15.00      3.00       0.0
  000307               JUNCTION             16.00      3.00       0.0
  000308               JUNCTION             16.00      3.00       0.0
  000309               JUNCTION             13.00      3.00       0.0
  000310               JUNCTION             24.00      3.00       0.0
  000311               JUNCTION             22.00      3.00       0.0
  000312               JUNCTION             25.00      3.00       0.0
  000313               JUNCTION             24.00      3.00       0.0
  000314               JUNCTION             22.00      3.00       0.0
  000315               JUNCTION             24.00      3.00       0.0
  000316               JUNCTION             21.00      3.00       0.0
  000317               JUNCTION             21.00      3.00       0.0
  000318               JUNCTION             24.00      3.00       0.0
  000319               JUNCTION             28.00      3.00       0.0
  000320               JUNCTION             20.00      3.00       0.0
  000321               JUNCTION             20.00      3.00       0.0
  000322               JUNCTION             23.00      3.00       0.0
  000324               JUNCTION             22.00      3.00       0.0
  000325               JUNCTION             21.00      3.00       0.0
  000326               JUNCTION             21.00      3.00       0.0
  000327               JUNCTION             25.00      3.00       0.0
  000328               JUNCTION             26.00      3.00       0.0
  000329               JUNCTION             26.00      3.00       0.0
  000330               JUNCTION             23.00      3.00       0.0
  000331               JUNCTION             26.00      3.00       0.0
  000332A              JUNCTION             29.00      3.00       0.0
  000333               JUNCTION             31.00      3.00       0.0
  000335               JUNCTION             27.00      3.00       0.0
  000336               JUNCTION             25.00      3.00       0.0
  000337A              JUNCTION             28.00      3.00       0.0
  000339               JUNCTION             29.00      3.00       0.0
  000340               JUNCTION             28.00      3.00       0.0
  000341               JUNCTION             26.00      3.00       0.0
  000342               JUNCTION             28.00      3.00       0.0
  000343               JUNCTION              5.00      3.00       0.0
  000344               JUNCTION             -1.00      3.00       0.0
  000345               JUNCTION             36.00      3.00       0.0
  000346               JUNCTION             27.00      3.00       0.0
  000347               JUNCTION             27.00      3.00       0.0
  000348               JUNCTION             29.00      3.00       0.0
  000349               JUNCTION             17.00      3.00       0.0
  000350               JUNCTION             20.00      3.00       0.0
  000351               JUNCTION             24.00      3.00       0.0
  000352               JUNCTION             17.00      3.00       0.0
  000352_1A            JUNCTION             15.22      7.78  146734.3    Yes
  000353               JUNCTION             36.00      3.00       0.0
  000354               JUNCTION             36.00      3.00       0.0
  000355               JUNCTION             32.00      3.00       0.0
  000356               JUNCTION             32.00      3.00       0.0
  000357               JUNCTION             31.00      3.00       0.0
  000357_1             JUNCTION             16.83      8.40  174072.5    Yes
  000358               JUNCTION             36.00      3.00       0.0
  000359_1             JUNCTION             17.10      7.94  201036.5    Yes
  000360               JUNCTION             36.00      3.00       0.0
  000361               JUNCTION             21.00      3.00       0.0
  000361_1             JUNCTION             17.66      6.53  179239.8    Yes
  000362               JUNCTION             23.00      3.00       0.0
  000362_1A            JUNCTION             11.97     12.46       0.0
  000363               JUNCTION             20.00      3.00       0.0
  000363_1             JUNCTION             11.80     12.80  542608.1    Yes
  000364               JUNCTION             19.00      3.00       0.0
  000364_1             JUNCTION             11.80     10.20       0.0
  000365               JUNCTION             21.00      3.00       0.0
  000366               JUNCTION             21.00      3.00       0.0
  000367               JUNCTION             21.00      3.00       0.0
  000368               JUNCTION             24.00      3.00       0.0
  000369               JUNCTION             19.00      3.00       0.0
  000369_1             JUNCTION             16.77      6.31  228924.3    Yes
  000370               JUNCTION             19.00      3.00       0.0
  000370_1             JUNCTION             15.95      8.51  503047.6    Yes
  000371               JUNCTION             18.00      3.00       0.0
  000372               JUNCTION             14.43     10.89       0.0
  000373               JUNCTION             20.00      3.00       0.0
  000374               JUNCTION             21.00      3.00       0.0
  000375               JUNCTION             22.00      3.00       0.0
  000376               JUNCTION             22.00      3.00       0.0
  000377               JUNCTION             21.00      3.00       0.0
  000378               JUNCTION             21.00      3.00       0.0
  000379               JUNCTION             22.00      3.00       0.0
  000379_1             JUNCTION             11.47      7.53       0.0
  000380               JUNCTION             21.00      3.00       0.0
  000380_1             JUNCTION             10.40      9.84       0.0
  000382               JUNCTION             23.00      3.00       0.0
  000383               JUNCTION             18.00      3.00       0.0
  000384               JUNCTION             27.00      3.00       0.0
  000385               JUNCTION             18.00      3.00       0.0
  000386               JUNCTION             16.00      3.00       0.0
  000386A              JUNCTION             16.00      3.00       0.0
  000388               JUNCTION             16.00      3.00       0.0
  000389               JUNCTION             17.00      3.00       0.0
  000390A              JUNCTION             12.00      3.00       0.0
  000393               JUNCTION             17.00      3.00       0.0
  000394               JUNCTION             17.00      3.00       0.0
  000395               JUNCTION             17.00      3.00       0.0
  000396               JUNCTION             22.00      3.00       0.0
  000397               JUNCTION             20.00      3.00       0.0
  000398               JUNCTION             23.00      3.00       0.0
  000399               JUNCTION             20.00      3.00       0.0
  000401               JUNCTION             24.00      3.00       0.0
  000401_1             JUNCTION             13.31     12.87  470565.6    Yes
  000402               JUNCTION             22.00      3.00       0.0
  000402_1             JUNCTION             13.18     12.82       0.0
  000403               JUNCTION             25.00      3.00       0.0
  000404               JUNCTION             28.00      3.00       0.0
  000405               JUNCTION             28.00      3.00       0.0
  000406               JUNCTION             28.00      3.00       0.0
  000407               JUNCTION             21.00      3.00       0.0
  000409               JUNCTION             -4.00      3.00       0.0
  000410               JUNCTION             17.00      3.00       0.0
  000411               JUNCTION             18.00      3.00       0.0
  000412               JUNCTION             16.00      3.00       0.0
  000413A              JUNCTION             20.00      3.00       0.0
  000414               JUNCTION             21.00      3.00       0.0
  000415               JUNCTION             18.00      3.00       0.0
  000416               JUNCTION             27.00      3.00       0.0
  000417               JUNCTION             28.00      3.00       0.0
  000418A              JUNCTION             28.00      3.00       0.0
  000419A              JUNCTION             26.00      3.00       0.0
  000421               JUNCTION             20.00      3.00       0.0
  000422               JUNCTION             17.00      3.00       0.0
  000423               JUNCTION             16.00      3.00       0.0
  000425               JUNCTION             17.00      3.00       0.0
  000427               JUNCTION             20.00      3.00       0.0
  000428               JUNCTION             16.00      3.00       0.0
  000429               JUNCTION             17.00      3.00       0.0
  000430               JUNCTION             17.00      3.00       0.0
  000431               JUNCTION             17.00      3.00       0.0
  000432               JUNCTION             17.00      3.00       0.0
  000433               JUNCTION             18.00      3.00       0.0
  000434               JUNCTION             18.00      3.00       0.0
  000435               JUNCTION             18.00      3.00       0.0
  000436               JUNCTION             16.00      3.00       0.0
  000437               JUNCTION             16.00      3.00       0.0
  000437_1             JUNCTION             20.10      8.59       0.0
  000438               JUNCTION             18.00      3.00       0.0
  000439               JUNCTION             18.00      3.00       0.0
  000440               JUNCTION             18.00      3.00       0.0
  000441               JUNCTION             18.00      3.00       0.0
  000442               JUNCTION             18.00      3.00       0.0
  000443               JUNCTION             18.00      3.00       0.0
  000443_1A            JUNCTION              0.96      6.41       0.0
  000444               JUNCTION             18.00      3.00       0.0
  000445               JUNCTION             14.00      3.00       0.0
  000446               JUNCTION             17.00      3.00       0.0
  000447               JUNCTION             15.00      3.00       0.0
  000448               JUNCTION             16.00      3.00       0.0
  000449               JUNCTION             12.00      8.00       0.0
  000451               JUNCTION             36.00      3.00       0.0
  000452               JUNCTION             33.00      3.00       0.0
  000454               JUNCTION             16.00      3.00       0.0
  000454_1             JUNCTION             19.25     11.72       0.0
  000455               JUNCTION             14.00      3.00       0.0
  000456               JUNCTION              8.00      3.00       0.0
  000456_1             JUNCTION             18.11     11.26  474739.1    Yes
  000457               JUNCTION             17.00      3.00       0.0
  000457_1             JUNCTION             18.64     11.27       0.0
  000458               JUNCTION             17.00      3.00       0.0
  000460A              JUNCTION             20.00      3.00       0.0
  000461               JUNCTION             19.00      3.00       0.0
  000461_1             JUNCTION             17.66      9.79  482174.4    Yes
  000462               JUNCTION             23.00      3.00       0.0
  000462_1             JUNCTION             17.15     10.85       0.0
  000464               JUNCTION             21.00      3.00       0.0
  000465               JUNCTION             19.00      3.00       0.0
  000466               JUNCTION             18.00      3.00       0.0
  000467               JUNCTION             18.00      3.00       0.0
  000468               JUNCTION             21.00      3.00       0.0
  000469               JUNCTION             18.00      3.00       0.0
  000470A              JUNCTION             22.00      3.00       0.0
  000471A              JUNCTION             21.00      3.00       0.0
  000472A              JUNCTION             21.00      3.00       0.0
  000473A              JUNCTION             19.00      3.00       0.0
  000473_1             JUNCTION              1.59      5.15       0.0
  000474               JUNCTION             16.00      3.00       0.0
  000474_1             JUNCTION              0.04      7.33  935139.5    Yes
  000475               JUNCTION             19.00      3.00       0.0
  000476               JUNCTION             24.00      3.00       0.0
  000477               JUNCTION             19.00      3.00       0.0
  000478               JUNCTION             29.00      3.00       0.0
  000479               JUNCTION             20.00      3.00       0.0
  000480A              JUNCTION             15.00      3.00       0.0
  000481B              JUNCTION             20.00      3.00       0.0
  000482A              JUNCTION             29.00      3.00       0.0
  000483A              JUNCTION             29.00      3.00       0.0
  000484A              JUNCTION             29.00      3.00       0.0
  000484_1             JUNCTION             12.84     10.83  367837.3    Yes
  000485               JUNCTION             24.00      3.00       0.0
  000486               JUNCTION             23.00      3.00       0.0
  000487               JUNCTION             27.00      3.00       0.0
  000488               JUNCTION             26.00      3.00       0.0
  000489               JUNCTION             26.00      3.00       0.0
  000493               JUNCTION             28.00      3.00       0.0
  000494               JUNCTION             27.00      3.00       0.0
  000495               JUNCTION             28.00      3.00       0.0
  000496               JUNCTION             28.00      3.00       0.0
  000497               JUNCTION             29.00      3.00       0.0
  000498               JUNCTION             28.00      3.00       0.0
  000499               JUNCTION             24.00      3.00       0.0
  000501               JUNCTION             16.00      3.00       0.0
  000502               JUNCTION             16.00      3.00       0.0
  000503               JUNCTION             13.00      3.00       0.0
  000504               JUNCTION             18.00      3.00       0.0
  000505               JUNCTION             20.00      3.00       0.0
  000506               JUNCTION             26.00      3.00       0.0
  000507               JUNCTION             35.00      3.00       0.0
  000508               JUNCTION             28.00      3.00       0.0
  000509               JUNCTION             31.00      3.00       0.0
  000510               JUNCTION             46.00      3.00       0.0
  000511               JUNCTION             35.00      3.00       0.0
  000512               JUNCTION             33.00      3.00       0.0
  000514               JUNCTION             16.49      3.00       0.0
  000515               JUNCTION             18.00      3.00       0.0
  000516               JUNCTION             17.00      3.00       0.0
  000516_1             JUNCTION             10.23      8.18       0.0
  000517A              JUNCTION             22.00      3.00       0.0
  000518               JUNCTION             22.00      3.00       0.0
  00051A               JUNCTION             24.89      3.00       0.0
  000520               JUNCTION             27.00      3.00       0.0
  000521               JUNCTION             27.51      3.00       0.0
  000523               JUNCTION             17.00      3.00       0.0
  000524               JUNCTION             18.00      3.00       0.0
  000525               JUNCTION             20.00      3.00       0.0
  000526               JUNCTION             15.00      3.00       0.0
  000527               JUNCTION             15.00      3.00       0.0
  000528               JUNCTION             15.00      3.00       0.0
  000530A              JUNCTION             20.00      3.00       0.0
  000531_1A            JUNCTION              8.26     10.42       0.0
  000532               JUNCTION             28.00      3.00       0.0
  000532_1             JUNCTION              9.11      9.44       0.0
  000535               JUNCTION             21.00      3.00       0.0
  000536               JUNCTION             19.00      3.00       0.0
  000537               JUNCTION             17.00      3.00       0.0
  000538               JUNCTION             20.00      3.00       0.0
  000539               JUNCTION             13.00      3.00       0.0
  000540               JUNCTION             19.00      3.00       0.0
  000541               JUNCTION             16.00      3.00       0.0
  000542               JUNCTION             16.00      3.00       0.0
  000544               JUNCTION             15.00      3.00       0.0
  000546               JUNCTION             16.00      3.00       0.0
  000547               JUNCTION             20.00      3.00       0.0
  000548               JUNCTION             20.00      3.00       0.0
  000549               JUNCTION             18.00      3.00       0.0
  000550A              JUNCTION             13.00      3.00       0.0
  000551A              JUNCTION             13.00      3.00       0.0
  000552A              JUNCTION             18.00      3.00       0.0
  000553A              JUNCTION             18.00      3.00       0.0
  000554A              JUNCTION             17.00      3.00       0.0
  000556               JUNCTION             18.00      3.00       0.0
  000558               JUNCTION             19.00      3.00       0.0
  000559               JUNCTION             18.00      3.00       0.0
  000560A              JUNCTION             16.00      3.00       0.0
  000561A              JUNCTION             16.00      3.00       0.0
  000562B              JUNCTION             15.00      3.00       0.0
  000563A              JUNCTION             15.00      3.00       0.0
  000564A              JUNCTION             15.00      3.00       0.0
  000565A              JUNCTION             17.00      3.00       0.0
  000566               JUNCTION             15.00      3.00       0.0
  000568               JUNCTION             16.00      3.00       0.0
  000569               JUNCTION             15.00      3.00       0.0
  000570               JUNCTION             29.95      3.00       0.0
  000571               JUNCTION             29.59      3.00       0.0
  000573_1             JUNCTION              5.95     11.70       0.0
  000574               JUNCTION             34.00      3.00       0.0
  000575               JUNCTION             35.00      3.00       0.0
  000576               JUNCTION             28.00      3.00       0.0
  000577               JUNCTION             28.00      3.00       0.0
  000578               JUNCTION             33.00      3.00       0.0
  000579               JUNCTION             35.00      3.00       0.0
  000581               JUNCTION             17.00      3.00       0.0
  000582               JUNCTION             16.00      3.00       0.0
  000584               JUNCTION             31.00      3.00       0.0
  000585               JUNCTION             29.00      3.00       0.0
  000586               JUNCTION             28.00      3.00       0.0
  000587               JUNCTION             30.00      3.00       0.0
  000587_1             JUNCTION             25.85      7.68       0.0
  000588               JUNCTION             24.00      3.00       0.0
  000589               JUNCTION             21.00      3.00       0.0
  000590               JUNCTION             33.00      3.00       0.0
  000591               JUNCTION             33.00      3.00       0.0
  000594A              JUNCTION             15.00      3.00       0.0
  000595               JUNCTION             16.00      3.00       0.0
  000596               JUNCTION             16.00      3.00       0.0
  000597               JUNCTION             16.00      3.00       0.0
  000598               JUNCTION             15.00      3.00       0.0
  000599               JUNCTION             15.00      3.00       0.0
  000600               JUNCTION             15.00      3.00       0.0
  000601               JUNCTION             16.00      3.00       0.0
  000605               JUNCTION             21.00      3.00       0.0
  000606               JUNCTION             30.00      3.00       0.0
  000607               JUNCTION             24.00      3.00       0.0
  000608               JUNCTION             22.00      3.00       0.0
  000610               JUNCTION             30.00      3.00       0.0
  000611               JUNCTION             30.49      3.00       0.0
  000612               JUNCTION              4.55      3.00       0.0
  000613               JUNCTION              4.16      3.00       0.0
  000614               JUNCTION              2.05      3.00       0.0
  000615               JUNCTION             13.00      3.00       0.0
  000616               JUNCTION             16.00      3.00       0.0
  000617               JUNCTION             18.00      3.00       0.0
[...]
  000816.1                    7.13      7.13      7.79      0.01         0.01
  000817.1                    6.88      6.88      7.13      0.01         0.01
  000818.1                    6.88      6.88      6.88     20.15         6.07
  000819.2                    6.88      6.88      6.88     12.15         3.74
  000821.1                   13.88     13.89     13.88     13.96        12.71
  000821A.1                  13.88     13.88     13.88     14.13        12.36
  000823.2                   13.70     13.70     13.70      0.06         2.71
  000826.2                   19.68     19.70     20.24      0.01         0.38
  000828.2                   13.93     13.93     16.71      0.01         0.01
  000829.1                   16.54     16.54     16.55     18.65        13.39
  000830.1                   16.55     16.55     16.56     14.47        12.28
  000831.1                   16.54     16.54     20.13      0.01         0.01
  000832.2                   16.69     16.69     16.70     11.97         8.35
  000833.2                   16.52     16.52     20.13      0.01         0.05
  000834.1                   16.52     16.52     16.52     11.77         9.05
  000834.2                   12.80     12.80     14.99      0.01         0.01
  000836.1                   15.20     15.20     16.70      0.01         0.01
  000837.1                   13.89     14.01     13.89     15.79        13.29
  000838.1                   14.95     14.95     15.12      0.01         0.01
  000839.2                   14.93     14.95     14.93     14.93        14.43
  000840.1                   14.93     14.93     14.93      0.01         1.24
  000841.2                   15.12     15.12     15.22      0.01         0.01
  000842.2                   15.22     15.22     15.25      0.01         0.01
  000843.1                   15.25     15.25     15.32      0.01         0.01
  000844.1                   15.62     15.62     15.62     15.83        15.16
  000845.1                   15.33     15.33     16.21      0.01         0.01
  000846.1                   15.31     15.31     16.21      0.01         0.01
  000847.1                   15.31     15.31     16.16      0.01         0.01
  000848.1                   15.30     15.31     15.30     15.96        14.79
  000849.1                   15.33     15.33     15.33      0.01         0.91
  000850.2                   15.06     15.06     15.12      0.01         0.01
  000851.1                   15.30     15.30     16.05      0.01         0.01
  000852.1                   13.28     13.28     14.33      0.01         0.04
  000853.1                   13.25     13.25     13.28     13.42        12.85
  000854.1                   13.25     13.25     13.25     13.22        12.86
  000855.1                   13.23     13.23     13.25      0.01         0.01
  000856.1                   12.18     12.18     13.23      0.01         0.01
  000857.1                   11.63     11.63     12.18      0.01         0.01
  000859.1                   14.87     14.87     14.87     10.53         8.63
  000860.1                   15.89     15.89     15.89      2.74         4.01
  000860.2                   14.87     14.87     15.87      0.01         0.01
  000861.1                   15.89     15.89     17.26      0.01         0.01
  000862.2                   17.26     17.26     17.26     13.47        12.91
  000863.1                   13.30     13.30     13.92      0.01         0.01
  000864.1                   13.92     13.92     13.93      8.37         7.72
  000865.2                   13.57     13.57     16.44      0.01         0.01
  000866.2                   13.93     13.93     13.93      0.01         4.65
  000866.3                   13.57     13.57     13.93      0.01         0.01
  000867.1                   11.40     11.40     13.29      0.01         0.01
  000868.1                   11.40     11.40     13.29      0.01         0.01
  000869.2                   13.93     13.93     13.93      9.79         7.77
  000870.1                   13.93     13.93     13.93      8.35         7.48
  000871.2                   15.16     15.16     15.16     13.46        11.46
  000872.1                   15.89     15.89     15.89      0.01         3.96
  000873.1                   15.90     15.90     19.38      0.01         0.01
  000874A.1                  18.35     18.35     18.56      0.01         0.01
  1371.1                      0.01      0.01     23.04      0.01         0.01
  1595.1                      5.83      5.83     20.14      0.01         0.01
  1596.1                     21.97     21.97     22.77      0.01         0.01
  1597.1                      5.78      5.78     23.49      0.01         0.01
  1619.1                     20.15     20.15     20.32      0.01         0.01
  1621.1                     21.19     21.19     21.97      0.01         0.01
  1791.1                      3.19      3.19      5.90      0.01         0.01
  2081.2                      2.43     12.46      2.43     17.17         2.43
  2082.1                      1.59      1.61      1.76      1.61         1.59
  2098.2                      0.01      0.01      6.13      0.01         0.01
  2330.1                     19.09     19.09     19.09     19.53        18.99
  2332.1                     19.55     19.55     19.85      0.01         0.01
  2338.1                     21.42     21.42     22.41      0.01         0.01
  2339.1                     22.05     22.05     22.41      0.01         0.01
  2340.1                     19.53     19.53     22.05      0.01         0.01
  2341.1                     19.22     19.22     19.53      0.01         0.01
  2350.1                     18.79     18.79     19.22      0.01         0.01
  2352.1                     18.78     18.78     18.78      0.01         0.01
  2353.1                     18.50     18.50     18.78      0.01         0.01
  2379.1                      0.01      0.01     19.09      0.01         0.01
  2416.1                     14.94     14.94     18.79      0.01         0.01
  2417.1                      0.01      0.01     14.94      0.01         0.01
  2493.1                      0.01      0.01     22.53      0.01         0.01
  2498.1                      0.01      0.01     19.54      0.01         0.01
  2499.1                     19.54     19.54     22.42      0.01         0.01
  2544.1                      0.91      0.91      1.12      0.01         0.01
  2545.1                      1.12      1.12      1.42      0.01         0.01
  2546.1                      1.42      1.42      1.88      0.01         0.01
  2547.1                      1.81      1.81      2.20      0.01         0.01
  2548.1                      2.20      2.20      2.58      0.01         0.01
  2549.3                      2.58      2.58     10.97      0.01         0.01
  5225.3                     14.11     14.11     15.12      0.01         0.01
  5236.1                     15.12     15.12     15.42      0.01         0.01
  5238.1                     15.42     15.42     15.85      0.01         0.01
  5599.2                      0.01      0.01      0.32      0.01         0.01
  9777.1                      0.01      0.01     22.67      0.01         0.01
  9785.2                      0.01      0.01      0.01     17.53         0.01
  9793.1                      7.86      7.86      9.54      0.01         0.01
  9811.1                      3.49      3.49      7.83      0.01         0.01
  9851.1                     12.51     12.51     16.14      0.01         0.01
  9852.1                      9.63      9.63     12.26      0.01         0.01
  
  
  ***************
  Pumping Summary
  ***************
  
  ---------------------------------------------------------------------------------------------------------
                                                  Min       Avg       Max     Total     Power    % Time Off
                        Percent   Number of      Flow      Flow      Flow    Volume     Usage    Pump Curve
  Pump                 Utilized   Start-Ups       MGD       MGD       MGD  10^6 gal     Kw-hr    Low   High
  ---------------------------------------------------------------------------------------------------------
  000005.1                 1.70         444      0.00      1.40      1.44     0.024      2.32    0.0   85.0
  000005.2                 0.00           0      0.00      0.00      0.00     0.000      0.00    0.0    0.0
  000051.1                11.23        1489      0.00      0.23      1.15     0.028      5.93    0.0    0.2
  000051.2                11.23        1489      0.00      0.23      1.15     0.028      5.93    0.0    0.2
  000068.1               100.00           1      0.00      0.01      0.03     0.012      0.23    0.0  100.0
  000068.2               100.00           1      0.00      0.01      0.03     0.012      0.23    0.0  100.0
  000091.1               100.00           1      0.00      0.05      0.08     0.049      2.93    0.0  100.0
  000091.2               100.00           1      0.00      0.05      0.08     0.049      2.93    0.0   94.5
  000097.1                 1.63         446      0.00      0.25      0.69     0.004      0.44    0.0    0.5
  000097.2                 0.00           0      0.00      0.00      0.00     0.000      0.00    0.0    0.0
  000100.1                 0.00           0      0.00      0.00      0.00     0.000      0.00    0.0    0.0
  000100.2                 0.00           0      0.00      0.00      0.00     0.000      0.00    0.0    0.0
  000125.1                 0.00           0      0.00      0.00      0.00     0.000      0.00    0.0    0.0
  000125.2                 0.00           0      0.00      0.00      0.00     0.000      0.00    0.0    0.0
  000125.3                 0.00           0      0.00      0.00      0.00     0.000      0.00    0.0    0.0
  000154.1                35.27        5273      0.00      0.40      0.51     0.141     31.95    0.0    0.0
  000154.2                35.27        5273      0.00      0.40      0.51     0.141     31.95    0.0    0.0
  000156.1                51.14        4840      0.00      0.27      0.60     0.137     12.83    0.0    0.0
  000156.2                 0.00           0      0.00      0.00      0.00     0.000      0.00    0.0    0.0
  000158B.1               25.43         176      0.00      0.27      0.86     0.069      8.51    0.0    0.1
  000158B.2                0.00           0      0.00      0.00      0.00     0.000      0.00    0.0    0.0
  000170.1                 6.29          47      0.00      0.61      0.94     0.038      3.70    0.0    1.4
  000170.2                 0.00           0      0.00      0.00      0.00     0.000      0.00    0.0    0.0
  000171.1                 3.15          81      0.00      0.35      0.80     0.011      0.90    0.0    0.0
  000171.2                 0.00           0      0.00      0.00      0.00     0.000      0.00    0.0    0.0
  000189.1                 0.00           0      0.00      0.00      0.00     0.000      0.00    0.0    0.0
  000189.2                 0.00           0      0.00      0.00      0.00     0.000      0.00    0.0    0.0
  000195.1               100.00           2      0.00      0.03      0.14     0.030      1.83    0.0  100.0
  000195.2               100.00           2      0.00      0.03      0.14     0.030      1.83    0.0  100.0
  000245.1                 2.93         751      0.00      0.21      0.72     0.006      1.44    0.0    8.0
  000245.2                 2.93         751      0.00      0.21      0.72     0.006      1.44    0.0    8.0
  000255A.1                2.23          26      0.00      1.71      1.73     0.038      2.41    0.0   93.3
  000255A.2                0.00           0      0.00      0.00      0.00     0.000      0.00    0.0    0.0
  000290.1                 2.70         726      0.00      1.13      1.15     0.031      1.76    0.0   75.4
  000290.2                 2.70         726      0.00      1.13      1.15     0.031      1.76    0.0   75.4
  000305.1                94.42           2      0.00      0.00      0.02     0.003      0.16    0.0   81.1
  000305.2                94.44           1      0.00      0.00      0.02     0.003      0.16    0.0   92.2
  000359.1                 0.00           0      0.00      0.00      0.00     0.000      0.00    0.0    0.0
  000359.2                 0.00           0      0.00      0.00      0.00     0.000      0.00    0.0    0.0
  000387.1               100.00           2      0.00      0.01      0.07     0.008      0.42    0.0  100.0
  000387.2               100.00           2      0.00      0.01      0.07     0.008      0.42    0.0  100.0
  000420.1                 9.50         738      0.00      0.05      0.25     0.005      1.10    0.0    0.0
  000420.2                 9.50         738      0.00      0.05      0.25     0.005      1.10    0.0    0.0
  000459.1                 1.49         407      0.00      0.20      0.58     0.003      0.34    0.0    3.9
  000459.2                 0.00           0      0.00      0.00      0.00     0.000      0.00    0.0    0.0
  000460.1                 9.53        2186      0.00      0.64      1.15     0.066     22.73    0.0   13.4
  000460.2                 0.00           0      0.00      0.00      0.00     0.000      0.00    0.0    0.0
  000470.1                30.58          61      0.00      0.26      0.72     0.080     18.23    0.0    6.0
  000470.2                15.46           1      0.00      0.12      0.15     0.018      5.18    0.0    0.0
  000490.1                 0.00           0      0.00      0.00      0.00     0.000      0.00    0.0    0.0
  000490.2                 0.00           0      0.00      0.00      0.00     0.000      0.00    0.0    0.0
  000500.1                 0.00           0      0.00      0.00      0.00     0.000      0.00    0.0    0.0
  000500.2                 0.00           0      0.00      0.00      0.00     0.000      0.00    0.0    0.0
  000513.1                99.99           2      0.00      0.09      0.23     0.087      7.11    0.0   99.8
  000513.2                99.99           2      0.00      0.09      0.23     0.087      7.11    0.0   99.8
  000517.1                29.78        3098      0.00      0.41      0.89     0.126     31.04    0.0    3.3
  000517.2                 6.80        1485      0.00      0.21      0.86     0.013      1.28    0.0   14.4
  000530.1                17.10         296      0.00      0.42      0.77     0.071      5.10    0.0    0.0
  000530.2                 0.00           0      0.00      0.00      0.00     0.000      0.00    0.0    0.0
  000543.1                20.51        3912      0.00      0.86      0.86     0.177     18.00    0.0   99.6
  000543.2                20.51        3912      0.00      0.86      0.86     0.177     18.00    0.0   99.6
  000593.1                 4.38         107      0.00      0.91      1.15     0.041     10.17    0.0    9.2
  000593.2                 0.00           0      0.00      0.00      0.00     0.000      0.00    0.0    0.0
  000603.1                25.32        1887      0.00      0.08      0.58     0.020      1.39    0.0    4.5
  000603.2                12.33           6      0.00      0.02      0.08     0.003      0.26    0.0    0.0
  000604.1                91.66           1      0.00      0.00      0.01     0.002      0.12    0.0  100.0
  000604.2                91.66           1      0.00      0.00      0.01     0.002      0.12    0.0  100.0
  000630.1                 0.00           0      0.00      0.00      0.00     0.000      0.00    0.0    0.0
  000630.2                 0.00           0      0.00      0.00      0.00     0.000      0.00    0.0    0.0
  000634.1                 9.89          45      0.00      0.85      0.86     0.085      2.52    0.0   93.7
  000634.2                 0.00           0      0.00      0.00      0.00     0.000      0.00    0.0    0.0
  000643.1                42.21         102      0.00      1.16      1.30     0.491     63.57    0.0   30.5
  000643.2                 0.00           0      0.00      0.00      0.00     0.000      0.00    0.0    0.0
  000652.1               100.00           1      0.00      0.02      0.04     0.018      4.17    0.0    8.7
  000652.2               100.00           1      0.00      0.02      0.04     0.018      4.17    0.0    8.7
  000654.1                 6.36        1716      0.00      0.70      0.95     0.046      9.10    0.0    0.9
  000654.2                 0.00           0      0.00      0.00      0.00     0.000      0.00    0.0    0.0
  000655.1                10.99         321      0.00      0.77      0.86     0.085     10.55    0.0   12.2
  000655.2                 0.00           0      0.00      0.00      0.00     0.000      0.00    0.0    0.0
  000667.1               100.00           1      0.00      0.00      0.01     0.003      0.18    0.0  100.0
  000667.2               100.00           1      0.00      0.00      0.01     0.003      0.18    0.0  100.0
  000685.1                 6.33        1674      0.00      1.40      1.40     0.089      9.28    0.0   98.3
  000685.2                 6.33        1674      0.00      1.40      1.40     0.089      9.28    0.0   98.3
  000709.1                10.78         130      0.00      0.47      1.15     0.051     11.44    0.0   22.6
  000709.2                 0.00           0      0.00      0.00      0.00     0.000      0.00    0.0    0.0
  000715.1                 0.00           0      0.00      0.00      0.00     0.000      0.00    0.0    0.0
  000715.2                 0.00           0      0.00      0.00      0.00     0.000      0.00    0.0    0.0
  000717.1                 2.71          54      0.00      0.75      1.15     0.020      3.96    0.0   35.1
  000717.2                 0.00           0      0.00      0.00      0.00     0.000      0.00    0.0    0.0
  000727.1                23.84         208      0.00      0.46      0.86     0.095      9.66    0.0   30.4
  000727.3                11.34          16      0.00      0.09      0.39     0.010      1.86    0.0    0.0
  000731.1                 4.15         660      0.00      0.32      1.15     0.014      2.58    0.0   17.1
  000731.2                 0.00           0      0.00      0.00      0.00     0.000      0.00    0.0    0.0
  000756.1                18.66          19      0.00      0.05      0.13     0.010      1.97    0.0   11.7
  000756.2                10.32           2      0.00      0.03      0.04     0.003      0.83    0.0    0.0
  000786.1                28.07        3140      0.00      0.49      0.88     0.130     23.17    0.0   33.5
  000786.2                10.56          28      0.00      0.13      0.21     0.014      4.61    0.0    0.0
  000793.1               100.00           1      0.00      0.20      0.58     0.190     43.03    0.0   94.0
  000793.2               100.00           1      0.00      0.20      0.58     0.190     43.03    0.0   94.0
  000793.3               100.00           1      0.00      0.20      0.58     0.190     43.03    0.0   94.0
  000805.1                 8.19          55      0.00      0.27      0.86     0.022      2.98    0.0   21.4
  000805.2                 5.65           1      0.00      0.04      0.08     0.002      0.58    0.0    0.0
  000824.1                 0.00           0      0.00      0.00      0.00     0.000      0.00    0.0    0.0
  000824.2                 0.00           0      0.00      0.00      0.00     0.000      0.00    0.0    0.0
  000827.1                 3.08         126      0.00      0.58      1.15     0.019      3.91    0.0   30.5
  000827.2                14.52           4      0.00      0.06      0.12     0.009      2.48    0.0    0.0
  000874.1                 0.00           0      0.00      0.00      0.00     0.000      0.00    0.0    0.0
  000874.2                 0.00           0      0.00      0.00      0.00     0.000      0.00    0.0    0.0
  

  Analysis begun on:  Wed Jun 24 09:10:23 2026
  Analysis ended on:  Wed Jun 24 09:10:50 2026
  Total elapsed time: 00:00:27