
  EPA STORM WATER MANAGEMENT MODEL - VERSION 5.2 (Build 5.2.4)
  ------------------------------------------------------------

  WARNING 04: minimum elevation drop used for Conduit EMS_PS108108A
  WARNING 04: minimum elevation drop used for Conduit O-PS165
  WARNING 04: minimum elevation drop used for Conduit PS103-PS102
  WARNING 04: minimum elevation drop used for Conduit PS103102
  WARNING 04: minimum elevation drop used for Conduit RM102_103
  WARNING 04: minimum elevation drop used for Conduit RM108108A
  WARNING 04: minimum elevation drop used for Conduit RM143A8-DN450
  WARNING 04: minimum elevation drop used for Conduit RM143B6-DN643
  WARNING 04: minimum elevation drop used for Conduit RM143B9-DN450
  WARNING 04: minimum elevation drop used for Conduit RM84188
  WARNING 04: minimum elevation drop used for Conduit RM84189
  WARNING 04: minimum elevation drop used for Conduit SM028541
  WARNING 04: minimum elevation drop used for Conduit SM108108A
  WARNING 04: minimum elevation drop used for Conduit SM108108B
  WARNING 04: minimum elevation drop used for Conduit SM11107
  WARNING 04: minimum elevation drop used for Conduit SM13944
  WARNING 04: minimum elevation drop used for Conduit SM17605
  WARNING 04: minimum elevation drop used for Conduit SM17775
  WARNING 04: minimum elevation drop used for Conduit SM7995
  WARNING 03: negative offset ignored for Link SM8313
  WARNING 03: negative offset ignored for Link SM8316
  WARNING 02: maximum depth increased for Node SMH200940
  WARNING 02: maximum depth increased for Node SMH5143
  
  ****************
  Analysis Options
  ****************
  Flow Units ............... CMS
  Process Models:
    Rainfall/Runoff ........ NO
    RDII ................... YES
    Snowmelt ............... NO
    Groundwater ............ NO
    Flow Routing ........... YES
    Ponding Allowed ........ NO
    Water Quality .......... NO
  Flow Routing Method ...... DYNWAVE
  Surcharge Method ......... EXTRAN
  Starting Date ............ 05/07/2006 00:00:00
  Ending Date .............. 05/14/2006 00:00:00
  Antecedent Dry Days ...... 0.0
  Report Time Step ......... 00:05:00
  Routing Time Step ........ 2.00 sec
  Variable Time Step ....... YES
  Maximum Trials ........... 8
  Number of Threads ........ 1
  Head Tolerance ........... 0.001500 m
  
  
  **************************        Volume        Volume
  Flow Routing Continuity        hectare-m      10^6 ltr
  **************************     ---------     ---------
  Dry Weather Inflow .......        25.779       257.795
  Wet Weather Inflow .......         0.000         0.000
  Groundwater Inflow .......         0.000         0.000
  RDII Inflow ..............         0.000         0.000
  External Inflow ..........         0.000         0.000
  External Outflow .........        25.624       256.239
  Flooding Loss ............         0.000         0.000
  Evaporation Loss .........         0.000         0.000
  Exfiltration Loss ........         0.000         0.000
  Initial Stored Volume ....         0.000         0.000
  Final Stored Volume ......         0.693         6.933
  Continuity Error (%) .....        -2.086
  
  
  *************************
  Highest Continuity Errors
  *************************
  Node SMH5400 (-25.05%)
  Node SMH45370 (21.87%)
  Node RM127B (-18.96%)
  Node SMH34737 (-13.82%)
  Node SMH34736 (13.04%)
  
  
  ***************************
  Time-Step Critical Elements
  ***************************
  Link RM84188 (27.27%)
  Link SM14933 (19.80%)
  Link SM017964 (9.55%)
  Link SM023021 (2.47%)
  Link RM21955 (1.69%)
  
  
  ********************************
  Highest Flow Instability Indexes
  ********************************
  Link SGM-026609 (54)
  Link RM143A5-DN450 (33)
  Link RM143A2-DN450 (22)
  Link RM143A1-DN450 (21)
  Link RM143A7-DN450 (21)
  
  
  *********************************
  Most Frequent Nonconverging Nodes
  *********************************
  Node MUD_WWTP (97.93%)
  Node OUT-102A (97.93%)
  Node OUT-102A2 (97.93%)
  Node OUT-108A (97.93%)
  Node OUT-111A (97.93%)
  
  
  *************************
  Routing Time Step Summary
  *************************
  Minimum Time Step           :     0.13 sec
  Average Time Step           :     1.65 sec
  Maximum Time Step           :     2.00 sec
  % of Time in Steady State   :     0.00
  Average Iterations per Step :     7.93
  % of Steps Not Converging   :    97.93
  Time Step Frequencies       :
      2.000 -  0.437 sec      :    96.53 %
      0.437 -  0.096 sec      :     3.47 %
      0.096 -  0.021 sec      :     0.00 %
      0.021 -  0.005 sec      :     0.00 %
      0.005 -  0.001 sec      :     0.00 %
  
  
  ******************
  Node Depth Summary
  ******************
  
  ---------------------------------------------------------------------------------
                                 Average  Maximum  Maximum  Time of Max    Reported
                                   Depth    Depth      HGL   Occurrence   Max Depth
  Node                 Type       Meters   Meters   Meters  days hr:min      Meters
  ---------------------------------------------------------------------------------
  CAA01                JUNCTION     0.04     0.07    18.37     6  04:18        0.07
  CAA02                JUNCTION     0.04     0.06    18.21     0  04:47        0.06
  CAA03                JUNCTION     0.08     0.11    18.16     6  05:13        0.11
  CAA04                JUNCTION     0.02     0.03    17.93     6  05:41        0.03
  CAA05                JUNCTION     0.05     0.08    15.68     6  14:00        0.08
  CAA06                JUNCTION     0.07     0.11    13.11     6  14:02        0.11
  CAA10                JUNCTION     0.15     0.30    -3.89     4  07:57        0.30
  CBB01                JUNCTION     0.09     0.13     1.13     1  07:43        0.13
  CCB02                JUNCTION     0.06     0.09     1.59     1  09:00        0.09
  CCB04                JUNCTION     0.08     0.12     0.27     4  09:03        0.12
  CEA01                JUNCTION     0.04     0.09    21.79     6  13:58        0.09
  CEA02E               JUNCTION     0.05     0.14    18.76     6  13:59        0.14
  CEA1E                JUNCTION     0.13     0.24    18.76     6  13:59        0.24
  CGTY01               JUNCTION     0.10     0.15    18.15     3  09:04        0.15
  CGTY02               JUNCTION     0.10     0.15    14.25     3  09:06        0.15
  CGTY03               JUNCTION     0.06     0.09    12.52     3  09:07        0.09
  CMDNA01              JUNCTION     0.11     0.17     7.02     0  14:25        0.17
  CMDNA02              JUNCTION     0.10     0.15     6.65     0  14:26        0.15
  CMDNA03              JUNCTION     0.08     0.11     6.21     0  14:26        0.11
  CMDNA04              JUNCTION     0.15     0.23     5.73     0  14:28        0.23
  CMDNA05              JUNCTION     0.10     0.15     5.35     0  14:30        0.15
  CMDNA06              JUNCTION     0.14     0.21     5.01     0  14:31        0.21
  CMDNA07              JUNCTION     0.13     0.20     4.80     0  14:33        0.20
  CMDNA08              JUNCTION     0.13     0.20     4.70     0  14:36        0.20
  CMDNA09              JUNCTION     0.19     0.29     4.64     0  14:38        0.29
  CMDNA10              JUNCTION     0.15     0.23     4.48     0  14:41        0.23
  CMDNA11              JUNCTION     0.11     0.16     4.31     0  14:45        0.16
  CMDNO04              JUNCTION     0.04     0.06     1.16     2  08:00        0.06
  CMDNO05              JUNCTION     0.01     0.02     1.19     2  08:00        0.02
  CRM108AA             JUNCTION     7.51    55.52    61.28     5  08:33       44.09
  CRM108AA1            JUNCTION     6.28    56.01    63.61     5  08:33       42.19
  CRM108AA2            JUNCTION     6.84   231.73   243.19     4  08:10       44.82
  CRM108AA3            JUNCTION     2.93   326.80   345.47     1  08:10       45.23
  CRM108AA4            JUNCTION     0.09     0.18    26.05     4  08:00        0.18
  CRM135A              JUNCTION    10.39    37.53    60.46     4  08:34       35.85
  CRM135B              JUNCTION     6.15   100.07   131.07     4  08:26       38.00
  CRM135C              JUNCTION     3.48   178.40   215.40     4  08:26       28.18
  CRM135D              JUNCTION     0.05     0.11    42.88     6  14:01        0.11
  CRM136A              JUNCTION     4.90    32.09    55.58     4  16:41       28.73
  CRM136AA             JUNCTION     9.14    17.94    37.94     0  01:14       12.08
  CRM136B              JUNCTION     0.04     0.09    28.69     6  13:58        0.09
  CRM136C              JUNCTION     3.16   249.28   277.58     4  08:27       40.48
  CRM136D              JUNCTION     0.04     0.10    35.60     6  13:57        0.10
  CRM136E              JUNCTION     1.34    11.50    39.00     0  01:14        2.46
  CRM170A              JUNCTION    11.49    66.41    66.95     6  23:51       61.89
  CRM170A1             JUNCTION    14.87   136.18   141.18     2  08:37       54.65
  CRM170A2             JUNCTION     8.21    74.68    94.68     2  08:37       34.68
  CRM170B              JUNCTION     1.55    32.83    67.33     1  08:26        7.87
  CRM170C              JUNCTION     0.21    28.65    67.05     1  08:26        2.70
  CRM174A              JUNCTION     7.91    66.09    66.99     3  08:10       62.43
  CRM174B              JUNCTION     0.05     0.11    30.11     1  09:10        0.10
  CRM175A              JUNCTION     6.80    50.02    51.76     5  08:32       44.89
  CRM175B              JUNCTION     0.09     0.18    21.56     2  09:07        0.18
  CRM179A              JUNCTION     5.15    38.24    36.24     5  08:09       31.98
  CRM179B              JUNCTION     0.03     0.15    10.15     4  05:01        0.15
  CRM181C              JUNCTION     4.47    10.96    18.49     0  07:09        4.85
  CRMFA                JUNCTION     1.96    15.02    16.02     1  08:09       13.86
  CRMHA                JUNCTION     2.88    40.92    40.42     6  15:15       33.51
  CRMHB                JUNCTION     0.05     0.15     1.60     4  07:55        0.15
  DAA01                JUNCTION     0.04     0.06    28.27     6  13:45        0.06
  DAA02                JUNCTION     0.02     0.04    20.82     6  14:00        0.04
  DAA03                JUNCTION     0.06     0.09    20.09     6  14:00        0.09
  DAA04                JUNCTION     0.06     0.10    16.97     0  14:00        0.10
  DAA06                JUNCTION     0.02     0.04    23.49     0  05:00        0.04
  DAB01                JUNCTION     0.01     0.02    -0.18     1  07:29        0.02
  DAB02                JUNCTION     0.02     0.03     0.44     1  07:17        0.03
  DAB03                JUNCTION     0.07     0.14     0.28     2  08:00        0.14
  DAB04                JUNCTION     0.03     0.04    -0.46     2  08:00        0.04
  DBA01                JUNCTION     0.10     0.14     1.14     2  08:00        0.14
  DBA02                JUNCTION     0.06     0.08     0.58     2  08:00        0.08
  DBB01                JUNCTION     0.09     0.13     0.93     5  07:58        0.13
  DBB02                JUNCTION     0.10     0.15     0.75     5  07:59        0.15
  DBB03                JUNCTION     0.08     0.11     0.56     4  08:02        0.11
  DBB06                JUNCTION     0.00     0.00    22.66     0  00:00        0.00
  DBB07                JUNCTION     0.04     0.06    13.57     4  08:28        0.06
  DBB08                JUNCTION     0.03     0.04     9.76     4  08:50        0.04
  DBB09                JUNCTION     0.02     0.03     3.57     4  07:00        0.03
  DBB10                JUNCTION     0.02     0.03     8.05     1  06:52        0.03
  DBB11                JUNCTION     0.05     0.08     1.64     3  06:48        0.08
  DBB12                JUNCTION     0.00     0.00     6.23     0  00:00        0.00
  DBB13                JUNCTION     0.04     0.06     1.32     4  07:15        0.06
  DBB14                JUNCTION     0.10     0.16     0.67     5  08:40        0.16
  DBB15                JUNCTION     0.03     0.04    15.95     4  08:12        0.04
  DBB16                JUNCTION     0.02     0.04     9.20     1  08:44        0.04
  DBB17                JUNCTION     0.10     0.16     1.32     5  09:00        0.16
  DBB18                JUNCTION     0.05     0.08     1.01     1  09:02        0.08
  DBB19                JUNCTION     0.02     0.03     9.18     1  09:00        0.03
  DBB20                JUNCTION     0.08     0.18     0.79     5  09:01        0.18
  DBB21                JUNCTION     0.02     0.04    16.92     1  09:00        0.04
  DBB22                JUNCTION     0.42     0.44     4.92     2  09:00        0.44
  DBB23                JUNCTION     0.05     0.10    -0.40     1  09:05        0.10
  DBB23A               JUNCTION     0.06     0.14    -3.06     1  09:05        0.14
  DBB23B               JUNCTION     0.00     0.00    -2.18     0  00:00        0.00
  DBB24A               JUNCTION     0.10     0.21    -4.20     4  07:57        0.21
  DBB24C               JUNCTION     0.00     0.00    -2.50     0  00:00        0.00
  DBB25                JUNCTION     0.04     0.05     6.61     0  00:02        0.05
  DBB26                JUNCTION     0.05     0.07     3.95     2  08:00        0.07
  DBB27                JUNCTION     0.05     0.08     2.80     2  08:00        0.08
  DBB28                JUNCTION     0.05     0.06     2.16     2  08:00        0.06
  DBB32                JUNCTION     0.03     0.04     8.90     0  00:04        0.04
  DBB33                JUNCTION     0.04     0.06     3.59     0  00:05        0.06
  DBB34                JUNCTION     0.08     0.13     1.63     2  08:00        0.13
  DBB35                JUNCTION     0.00     0.01    17.66     2  08:00        0.01
  DDB01                JUNCTION     0.11     0.16     0.37     5  08:48        0.16
  DDB02                JUNCTION     0.08     0.12     0.07     2  08:50        0.12
  DDB03                JUNCTION     0.06     0.09    -0.41     5  08:54        0.09
  DDB04                JUNCTION     0.03     0.05    -0.05     1  09:00        0.05
  DDB05                JUNCTION     0.08     0.22     3.72     5  08:57        0.22
  DDB06                JUNCTION     0.11     0.22     0.33     1  09:04        0.22
  DEA01                JUNCTION     0.11     0.17    11.70     2  08:13        0.17
  DEA02                JUNCTION     0.11     0.17     8.17     2  08:31        0.17
  DEA03                JUNCTION     0.10     0.15     9.87     2  08:25        0.15
  DEB01                JUNCTION     0.10     0.15     0.84     5  07:12        0.15
  DEB02                JUNCTION     0.08     0.12     0.46     5  07:14        0.12
  DEB03                JUNCTION     0.08     0.12     0.20     4  07:16        0.12
  DEB04                JUNCTION     0.12     0.18    -0.20     4  07:24        0.18
  DEB05                JUNCTION     0.10     0.15    -0.47     4  07:26        0.15
  DEB06                JUNCTION     0.09     0.16     4.06     3  06:30        0.16
  DEB07                JUNCTION     0.05     0.07     4.57     1  09:00        0.07
  DEB08                JUNCTION     0.05     0.08     3.58     1  09:00        0.08
  DEB09                JUNCTION     0.06     0.09     2.64     5  07:03        0.09
  DEB10                JUNCTION     0.07     0.11     1.49     4  06:53        0.11
  DEB11                JUNCTION     0.02     0.03     7.99     6  05:00        0.03
  DF02                 JUNCTION     0.06     0.11     0.60     1  07:09        0.11
  DF03                 JUNCTION     0.04     0.06     0.26     5  07:54        0.06
  DGA01                JUNCTION     0.05     0.08    22.44     6  14:01        0.08
  DGA02                JUNCTION     0.04     0.07    21.93     6  14:00        0.07
  DGA02A               JUNCTION     0.08     0.15    19.36     6  14:00        0.15
  DGA02B               JUNCTION     0.09     0.16    19.32     6  14:00        0.16
  DGA02C               JUNCTION     0.00     0.00    19.41     0  00:00        0.00
  DGA03                JUNCTION     0.03     0.05    25.93     0  13:15        0.05
  DGA04                JUNCTION     0.03     0.06    24.24     0  14:00        0.06
  DGA05                JUNCTION     0.04     0.07    23.09     6  14:00        0.07
  DHB01                JUNCTION     0.01     0.05    -0.95     5  02:37        0.05
  DHB02                JUNCTION     0.02     0.03     1.03     2  07:40        0.03
  DHB03                JUNCTION     0.03     0.05     0.75     1  08:00        0.05
  DHB04                JUNCTION     0.00     0.01     0.13     5  07:28        0.01
  DHB05                JUNCTION     0.02     0.04     1.54     2  08:00        0.04
  EMS_PS149IN          JUNCTION     0.00     0.00     6.94     0  00:00        0.00
  EMS_PS153IN          JUNCTION     0.00     0.00     9.70     0  00:00        0.00
  EMS_PS155OUT         JUNCTION     0.00     0.00     8.20     0  00:00        0.00
  FUT-RM181A2          JUNCTION     2.16   388.90   419.05     3  08:26       54.10
  FUT-RM181A3          JUNCTION    10.94   296.90   318.04     5  08:09       50.73
  FUT-RM181A4          JUNCTION     0.11     0.19    32.53     5  08:56        0.18
  FUT-RM181A5          JUNCTION     0.27     0.44    21.95     5  09:46        0.44
  FUT-RM181A6          JUNCTION     0.10     0.15    20.19     5  09:58        0.15
  FUT-RM181AA          JUNCTION     9.66   232.73   255.23     3  08:26       32.15
  MBWJ101              JUNCTION     6.31    50.62    59.32     0  02:03       25.38
  MBWJ102              JUNCTION     6.36    78.01    86.71     0  02:03       25.30
  MBWJ103              JUNCTION     0.10     0.15    16.16     3  09:05        0.15
  MBWP100              JUNCTION     0.12     0.20    19.28     3  09:03        0.20
  RM102A               JUNCTION     6.72    25.62    29.29     1  08:32       13.57
  RM102AA              JUNCTION     4.13    12.70    21.20     1  08:32        6.95
  RM102B               JUNCTION     5.52    26.76    31.76     1  08:32       12.33
  RM102BA              JUNCTION     4.21    14.71    23.21     1  08:32        7.08
  RM102C               JUNCTION     0.19     0.37    14.04     3  09:09        0.36
  RM102D               JUNCTION     0.19     0.38    14.05     2  09:42        0.37
  RM103A               JUNCTION     7.08    27.35    31.02     1  08:32       18.35
  RM103B               JUNCTION     5.98    31.39    36.39     1  08:32       16.91
  RM103BA              JUNCTION     3.91    18.78    27.28     1  08:32        9.85
  RM103C               JUNCTION     0.10     0.20    13.87     2  09:40        0.20
  RM104A               JUNCTION    10.29   637.20   650.74     1  08:26       72.44
  RM104B               JUNCTION     3.75   283.82   305.82     2  08:25       79.59
  RM105A               JUNCTION     5.80    32.77    34.77     4  08:26       31.43
  RM105B               JUNCTION     7.41    50.14    60.64     0  02:41       21.11
  RM108A               JUNCTION    22.35    64.11    69.87     5  08:11       54.20
  RM108A1              JUNCTION    25.53    62.92    70.52     5  08:11       52.34
  RM108A2              JUNCTION    26.83    65.23    71.68     5  08:11       52.90
  RM108B               JUNCTION    26.18    74.67    81.97     4  08:10       51.32
  RM108C               JUNCTION    12.49   226.94   249.44     4  08:10       31.29
  RM108CC              JUNCTION    11.86   165.77   189.77     4  08:10       26.20
  RM108D               JUNCTION    11.13    93.42   119.22     4  08:10       20.01
  RM108E               JUNCTION     0.25    14.93    53.33     1  08:09        1.57
  RM110A               JUNCTION    16.41    46.78    49.22     4  08:27       43.82
  RM110B               JUNCTION     5.91   136.70   160.00     4  08:27       23.41
  RM110C               JUNCTION     0.22    20.25    58.65     1  08:33        6.48
  RM110E               JUNCTION     4.47   172.60   195.30     1  08:32       24.42
  RM110F               JUNCTION     2.55   107.08   136.58     4  08:27       15.54
  RM110G               JUNCTION     1.33    84.69   118.89     4  08:27        8.77
  RM110H               JUNCTION    12.78   223.92   234.83     4  08:27       35.77
  RM111A               JUNCTION     5.10    24.83    32.28     4  08:11       23.79
  RM112A               JUNCTION     9.48    41.27    69.04     1  08:33       34.87
  RM112B               JUNCTION     3.34   159.94   197.94     1  08:33       35.96
  RM112C               JUNCTION     0.04     0.08    42.28     0  13:19        0.08
  RM112D               JUNCTION     8.78    98.36   127.86     1  08:33       40.79
  RM112E               JUNCTION     4.42   125.88   161.38     1  08:33       38.01
  RM112F               JUNCTION     6.69   126.86   161.86     2  08:09       29.83
  RM112G               JUNCTION     3.58   103.21   141.71     1  08:10       14.93
  RM112H               JUNCTION     0.03     0.05    35.05     6  13:54        0.05
  RM113A               JUNCTION     0.03     0.08     2.93     4  03:18        0.08
  RM114A               JUNCTION     3.25    27.25    31.25     4  08:32       24.65
  RM114B               JUNCTION     3.47    30.34    36.67     0  01:21       19.76
  RM119A               JUNCTION     3.16    21.67    26.67     5  08:33       19.47
  RM119B               JUNCTION     3.24    28.32    35.03     0  00:52       12.72
  RM122A               JUNCTION     1.67    24.48    28.48     5  08:26        9.97
  RM127A               JUNCTION     5.37    96.97    98.92     4  08:27       32.54
  RM127B               JUNCTION     6.24    60.25    63.50     5  08:26       22.31
  RM129A               JUNCTION     3.38    34.67    40.33     3  08:12       23.80
  RM129A2              JUNCTION     1.37   122.07   133.07     2  08:25       23.00
  RM129B               JUNCTION     0.09     0.19    11.09     5  09:00        0.19
  RM130A               JUNCTION     2.97    28.11    35.63     2  09:43       18.90
  RM131A               JUNCTION     0.09     5.16    11.44     2  08:08        3.93
  RM140A               JUNCTION     1.08    27.05    34.05     4  08:09       22.56
  RM140B               JUNCTION     1.01    65.93    79.63     4  08:33       15.39
  RM141A               JUNCTION     5.84    18.03    30.03     1  08:07       16.71
  RM141B               JUNCTION     2.75    24.75    42.66     3  08:26        9.45
  RM143A1              JUNCTION     0.80    68.26    73.26     5  08:33       29.32
  RM143A2              JUNCTION     1.26    66.03    70.43     5  08:33       30.01
  RM143A3              JUNCTION     1.54    62.49    66.49     5  08:33       30.02
  RM143A4              JUNCTION     2.04    62.53    65.93     5  08:33       29.84
  RM143A5              JUNCTION     2.61    61.97    64.77     5  08:33       29.89
  RM143A6              JUNCTION     1.49    55.65    59.55     5  08:33       26.59
  RM143A7              JUNCTION     1.35    51.34    55.34     5  08:33       24.58
  RM143A8              JUNCTION     1.23    41.87    45.87     2  08:09       18.29
  RM143A9              JUNCTION     1.75    44.58    47.98     4  08:33       14.53
  RM143B1              JUNCTION     0.99    72.52    77.52     5  08:33       26.51
  RM143B10             JUNCTION     1.04    63.35    67.35     2  08:09       15.81
  RM143B2              JUNCTION     1.57    71.71    76.11     5  08:33       25.07
  RM143B3              JUNCTION     1.96    68.81    72.81     5  08:33       22.81
  RM143B4              JUNCTION     2.55    65.31    68.71     5  08:33       21.26
  RM143B5              JUNCTION     1.88    46.30    50.30     5  08:33       12.47
  RM143B6              JUNCTION     1.87    38.33    42.33     5  08:33       10.04
  RM143B7              JUNCTION     2.45    31.95    35.35     4  08:26        7.95
  RM143B8              JUNCTION     0.16     0.42     6.12     1  09:13        0.42
  RM143B9              JUNCTION     0.06     0.15     5.85     1  09:13        0.15
  RM143C1              JUNCTION     1.61    75.28    78.78     5  08:33       30.71
  RM143C2              JUNCTION     0.57    72.78    78.18     5  08:33       28.36
  RM144A               JUNCTION     5.25    16.04    23.04     3  08:26       11.02
  RM145A               JUNCTION    18.19    50.52    53.27     5  08:10       42.26
  RM149A               JUNCTION     7.78    51.02    60.59     1  15:51       46.23
  RM149B               JUNCTION     4.70   139.27   150.51     1  08:25       36.79
  RM149C               JUNCTION     2.49   151.33   163.83     1  08:25       23.60
  RM150A               JUNCTION     1.34     2.93    14.93     2  08:21        1.82
  RM151A               JUNCTION     1.34     8.15    16.76     5  08:16        6.63
  RM153A               JUNCTION     7.63    39.49    47.16     5  08:09       33.41
  RM153B               JUNCTION     5.89   202.29   217.65     5  08:09       33.81
  RM153C               JUNCTION     0.08     0.18    24.16     3  08:31        0.18
  RM153D               JUNCTION     5.33   212.34   224.84     5  08:09       52.75
  RM155A               JUNCTION     7.20    24.70    43.62     3  08:32       22.17
  RM158A               JUNCTION     8.73    30.39    69.35     0  00:18       28.35
  RM158B               JUNCTION     6.66    28.17    75.04     0  00:19       17.71
  RM162A               JUNCTION     1.43   287.20   292.56     3  08:23       46.83
  RM164A               JUNCTION     0.42     4.77     9.07     5  08:40        3.87
  RM165A               JUNCTION     4.64    22.62    23.62     5  08:32       16.87
  RM165A1              JUNCTION     2.81    23.47    26.59     1  08:10       13.95
  RM165A2              JUNCTION     1.16    48.65    56.95     5  08:32        7.31
  RM165A3              JUNCTION     1.29    51.34    59.64     3  08:25       20.04
  RM165B               JUNCTION     4.99    21.96    24.84     1  08:33       14.41
  RM166A               JUNCTION     4.90   464.75   467.75     2  08:10      159.98
  RM166B               JUNCTION     3.00   384.90   390.90     2  08:10      129.13
  RM167A               JUNCTION     4.19   264.28   273.24     2  08:32       47.69
  RM167B               JUNCTION     0.05     0.08    20.38     5  09:23        0.08
  RM167C               JUNCTION     1.97   227.54   243.04     2  08:32       35.39
  RM169A               JUNCTION     0.51    14.83    22.79     1  08:26       11.67
  RM169B               JUNCTION     0.27    85.44    93.44     1  08:26        4.96
  RM180A               JUNCTION    15.98    81.50    87.94     4  08:09       61.56
  RM180B               JUNCTION    15.30   346.69   361.19     2  08:26      113.70
  RM180C               JUNCTION     8.26   540.41   566.91     5  08:26      132.25
  RM180CC              JUNCTION    20.08   452.56   467.56     5  08:26      139.70
  RM180D               JUNCTION    27.93   444.55   452.05     5  08:26      124.62
  RM180E               JUNCTION    28.89   343.47   350.77     5  08:26       74.16
  RM180F               JUNCTION    14.37   340.69   363.19     4  08:10       51.82
  RM180FF              JUNCTION    13.29   283.37   307.37     4  08:10       42.68
  RM180G               JUNCTION    11.99   196.47   222.27     2  08:33       30.29
  RM180H               JUNCTION     0.25    17.31    55.71     2  08:12        3.63
  RM181A               JUNCTION    13.06   743.82   743.68     3  08:32      212.71
  RM181B               JUNCTION     6.78   363.34   380.74     1  08:26      184.12
  RM181C               JUNCTION     9.11   343.73   360.73     1  08:26      174.42
  RM181D               JUNCTION    10.70   315.04   331.54     1  08:26      160.47
  RM181E               JUNCTION    12.13   270.03   286.03     1  08:26      137.90
  RM181J               JUNCTION    14.59   388.96   394.16     1  08:26      203.61
  SFT-008268           JUNCTION     1.07     1.35    22.39     0  02:01        1.32
  SFT200055            JUNCTION     0.03     0.11     1.95     4  07:38        0.10
  SFT200154            JUNCTION     0.05     0.07    -1.18     2  08:00        0.07
  SFT200309            JUNCTION     0.04     0.06     0.04     2  07:31        0.06
  SMH-028130           JUNCTION     0.06     0.11    14.71     3  07:05        0.10
  SMH-032014           JUNCTION     0.05     0.08    14.41     6  14:06        0.08
  SMH-036081           JUNCTION     0.04     0.06     8.75     3  08:02        0.06
  SMH-037769           JUNCTION     0.03     0.04    12.73     2  08:00        0.04
  SMH-040392           JUNCTION     0.12     0.20    14.31     6  14:01        0.20
  SMH-043568           JUNCTION     0.10     0.15    22.46     2  08:00        0.15
  SMH-043569           JUNCTION     0.10     0.15    22.60     2  08:00        0.15
  SMH-043570           JUNCTION     0.09     0.13    22.72     2  08:00        0.13
  SMH-043571           JUNCTION     0.11     0.16    22.86     2  08:00        0.16
  SMH-043572           JUNCTION     0.08     0.12    23.00     2  08:00        0.12
  SMH-051705           JUNCTION     0.00     0.00     4.42     0  00:00        0.00
  SMH-100113           JUNCTION     0.04     0.06    27.74     0  03:00        0.06
  SMH-100114           JUNCTION     0.04     0.07    27.34     0  03:00        0.07
  SMH-100115           JUNCTION     0.04     0.07    27.10     0  03:00        0.07
  SMH-100116           JUNCTION     0.06     0.10    26.90     2  08:00        0.10
  SMH-100117           JUNCTION     0.06     0.09    26.56     2  08:00        0.09
  SMH-100118           JUNCTION     0.07     0.10    26.05     2  08:00        0.10
  SMH-100119           JUNCTION     0.07     0.11    25.74     2  08:00        0.11
  SMH-100120           JUNCTION     0.07     0.11    25.62     2  08:00        0.11
  SMH-100121           JUNCTION     0.06     0.10    25.49     2  08:00        0.10
  SMH-100122           JUNCTION     0.11     0.17    23.27     2  08:00        0.17
  SMH-100123           JUNCTION     0.03     0.05    29.92     6  02:56        0.05
  SMH-100124           JUNCTION     0.03     0.05    28.34     0  03:00        0.05
  SMH-100125           JUNCTION     0.03     0.06    27.96     0  02:45        0.06
  SMH-101237           JUNCTION     0.04     0.07    36.40     0  02:57        0.07
  SMH-101272           JUNCTION     0.03     0.05    35.06     0  02:35        0.05
  SMH-101456           JUNCTION     0.17     0.25     8.79     0  14:11        0.25
  SMH-101457           JUNCTION     0.15     0.24     8.80     0  14:11        0.24
  SMH-101458           JUNCTION     0.09     0.18     8.81     0  14:11        0.18
  SMH-101459           JUNCTION     0.07     0.15     8.87     0  14:11        0.15
  SMH-101460           JUNCTION     0.07     0.15     9.01     0  14:10        0.15
  SMH-101461           JUNCTION     0.07     0.16     9.12     0  14:09        0.16
  SMH-101462           JUNCTION     0.07     0.16     9.18     0  14:08        0.16
  SMH-101463           JUNCTION     0.07     0.15     9.24     0  14:08        0.15
  SMH-101464           JUNCTION     0.07     0.16     9.31     0  14:07        0.16
  SMH-101465           JUNCTION     0.07     0.16     9.37     0  14:07        0.16
  SMH-101466           JUNCTION     0.07     0.15     9.46     0  14:06        0.15
  SMH-101467           JUNCTION     0.06     0.14     9.51     0  14:05        0.14
  SMH-101468           JUNCTION     0.07     0.15     9.57     0  14:05        0.15
  SMH-101469           JUNCTION     0.08     0.17     9.67     0  14:04        0.17
  SMH-101470           JUNCTION     0.05     0.15     9.69     0  14:04        0.15
  SMH-101472           JUNCTION     0.25     0.37     9.89     0  14:02        0.37
  SMH-101473           JUNCTION     0.22     0.35     9.93     0  14:01        0.35
  SMH-101474           JUNCTION     0.17     0.29     9.94     0  14:03        0.29
  SMH-102317           JUNCTION     0.05     0.06    12.49     2  08:00        0.06
  SMH-102318           JUNCTION     0.05     0.07    12.41     2  08:00        0.07
  SMH-102319           JUNCTION     0.06     0.08    12.37     2  08:00        0.08
  SMH-102320           JUNCTION     0.05     0.06    12.25     2  08:00        0.06
  SMH-102321           JUNCTION     0.05     0.06    11.91     2  08:01        0.06
  SMH-102322           JUNCTION     0.05     0.06    11.72     2  08:01        0.06
  SMH-102323           JUNCTION     0.05     0.07    11.61     2  08:01        0.07
  SMH-102324           JUNCTION     0.05     0.07    11.47     2  08:01        0.07
  SMH-102325           JUNCTION     0.05     0.06    11.34     2  08:02        0.06
  SMH-102326           JUNCTION     0.05     0.07    11.19     2  08:02        0.07
  SMH-102327           JUNCTION     0.05     0.06    10.94     2  08:03        0.06
  SMH-102328           JUNCTION     0.05     0.07    10.55     2  08:03        0.07
  SMH08160             JUNCTION     0.05     0.07     2.67     1  09:02        0.07
  SMH10011             JUNCTION     0.02     0.04    13.45     1  06:32        0.04
  SMH10024             JUNCTION     0.21     0.30     9.53     0  14:05        0.30
  SMH10027             JUNCTION     0.03     0.04    11.27     1  06:34        0.04
  SMH10032             JUNCTION     0.20     0.29     8.93     0  14:08        0.29
  SMH10054             JUNCTION     0.26     0.36     9.38     0  14:07        0.36
  SMH10056             JUNCTION     0.20     0.31     9.01     0  14:08        0.30
  SMH10057             JUNCTION     0.12     0.20     8.80     0  14:10        0.20
  SMH10059             JUNCTION     0.14     0.22     8.71     0  14:12        0.22
  SMH10062             JUNCTION     0.05     0.08    16.56     3  06:05        0.08
  SMH10064             JUNCTION     0.05     0.08    16.73     2  06:02        0.07
  SMH10075             JUNCTION     0.01     0.02    17.08     4  07:00        0.02
  SMH10076             JUNCTION     0.03     0.05    17.29     4  07:00        0.05
  SMH10077             JUNCTION     0.05     0.08    17.42     4  07:00        0.08
  SMH10078             JUNCTION     0.02     0.03    17.92     4  06:10        0.03
  SMH10082             JUNCTION     0.02     0.02    18.78     3  06:59        0.02
  SMH10083             JUNCTION     0.02     0.02    20.00     1  06:58        0.02
  SMH10087             JUNCTION     0.05     0.08    16.46     1  06:51        0.08
  SMH10096             JUNCTION     0.04     0.05    21.28     1  09:00        0.05
  SMH10097             JUNCTION     0.04     0.06    21.16     1  09:00        0.06
  SMH10098             JUNCTION     0.11     0.14    17.64     1  09:00        0.14
  SMH10099             JUNCTION     0.02     0.03    17.84     1  09:00        0.03
  SMH10101             JUNCTION     0.03     0.04    18.00     5  09:05        0.04
  SMH10102             JUNCTION     0.03     0.04    18.17     1  09:01        0.04
  SMH10106             JUNCTION     0.03     0.04    18.36     1  09:00        0.04
  SMH10107             JUNCTION     0.03     0.04    18.51     1  09:00        0.04
  SMH10108             JUNCTION     0.03     0.04    18.64     1  09:00        0.04
  SMH101269            JUNCTION     0.03     0.11    58.87     0  02:49        0.11
  SMH101270            JUNCTION     0.03     0.13    59.04     0  02:49        0.13
  SMH10178             JUNCTION     0.24     0.36     9.87     0  14:02        0.36
  SMH10179             JUNCTION     0.20     0.31     9.80     0  14:03        0.30
  SMH10180             JUNCTION     0.20     0.30     9.66     0  14:04        0.30
  SMH10190             JUNCTION     0.05     0.07    16.31     3  06:52        0.07
  SMH10191             JUNCTION     0.03     0.05     8.58     4  07:00        0.05
  SMH10192             JUNCTION     0.03     0.05     8.38     4  07:00        0.05
  SMH10197             JUNCTION     0.03     0.05     8.08     4  07:00        0.05
  SMH10198             JUNCTION     0.03     0.05     9.50     3  06:53        0.05
  SMH10199             JUNCTION     0.12     0.19     7.85     0  14:16        0.19
  SMH10202             JUNCTION     0.15     0.23     7.66     0  14:18        0.23
  SMH10205             JUNCTION     0.03     0.05    10.95     4  06:53        0.05
  SMH10206             JUNCTION     0.03     0.05    10.28     1  06:52        0.05
  SMH10207             JUNCTION     0.09     0.14     8.25     0  14:15        0.14
  SMH10209             JUNCTION     0.14     0.22     8.52     0  14:14        0.22
  SMH10213             JUNCTION     0.14     0.23     8.57     0  14:13        0.23
  SMH10214             JUNCTION     0.14     0.23     8.64     0  14:12        0.23
  SMH10217             JUNCTION     0.03     0.04    16.01     1  06:55        0.04
  SMH10218             JUNCTION     0.04     0.06    14.03     4  06:54        0.06
  SMH10223             JUNCTION     0.03     0.04    12.92     3  06:48        0.04
  SMH10245             JUNCTION     0.03     0.04    19.84     3  08:55        0.04
  SMH10246             JUNCTION     0.03     0.04    19.67     2  08:59        0.04
  SMH10255             JUNCTION     0.03     0.04    19.12     1  09:00        0.04
  SMH10256             JUNCTION     0.03     0.04    19.37     1  09:00        0.04
  SMH10257             JUNCTION     0.03     0.03    19.47     2  08:58        0.03
  SMH10261             JUNCTION     0.03     0.04    18.86     1  09:00        0.04
  SMH10262             JUNCTION     0.03     0.04    18.80     1  09:00        0.04
  SMH10275             JUNCTION     0.10     0.15     4.76     0  14:27        0.15
  SMH10285             JUNCTION     0.16     0.24     4.51     0  14:28        0.24
  SMH10286             JUNCTION     0.15     0.24     4.34     0  14:30        0.24
  SMH10287             JUNCTION     0.13     0.20     4.42     0  14:29        0.20
  SMH102923            JUNCTION     0.05     0.09    25.35     0  13:37        0.09
  SMH102924            JUNCTION     0.06     0.10    24.89     0  13:42        0.10
  SMH102925            JUNCTION     0.04     0.06    24.58     0  13:44        0.06
  SMH102926            JUNCTION     0.06     0.09    21.95     0  13:43        0.09
  SMH102927            JUNCTION     0.06     0.09    21.69     6  13:52        0.09
  SMH102928            JUNCTION     0.06     0.10    21.17     0  13:52        0.10
  SMH102929            JUNCTION     0.06     0.10    20.86     0  13:59        0.10
  SMH102930            JUNCTION     0.06     0.10    20.60     6  13:58        0.10
  SMH102931            JUNCTION     0.06     0.10    20.31     0  13:59        0.10
  SMH102932            JUNCTION     0.06     0.10    19.97     0  14:00        0.10
  SMH102933            JUNCTION     0.03     0.05    19.68     0  13:30        0.05
  SMH10300             JUNCTION     0.16     0.24     7.21     0  14:24        0.24
  SMH10301             JUNCTION     0.08     0.12     6.99     0  14:24        0.12
  SMH10302             JUNCTION     0.09     0.14     5.79     0  14:25        0.14
  SMH10305             JUNCTION     0.10     0.15     5.33     0  14:27        0.15
  SMH10324             JUNCTION     0.02     0.03     7.98     4  07:00        0.03
  SMH10337             JUNCTION     0.15     0.23     7.38     0  14:21        0.23
  SMH10348             JUNCTION     0.06     0.11    23.69     2  06:34        0.11
  SMH10349             JUNCTION     0.03     0.06    26.14     1  06:36        0.06
  SMH10350             JUNCTION     0.05     0.09    28.04     1  06:49        0.09
  SMH10351             JUNCTION     0.04     0.07    27.82     4  06:54        0.07
  SMH10352             JUNCTION     0.05     0.10    28.38     3  06:18        0.10
  SMH10355             JUNCTION     0.15     0.23     7.52     0  14:19        0.23
  SMH10366             JUNCTION     0.07     0.12    16.90     6  14:00        0.12
  SMH10367             JUNCTION     0.04     0.06    18.02     0  13:53        0.06
  SMH10368             JUNCTION     0.03     0.05    19.61     0  13:33        0.05
  SMH10369             JUNCTION     0.03     0.05    21.14     6  13:30        0.05
  SMH10373             JUNCTION     0.04     0.07    17.86     0  13:53        0.07
  SMH10387             JUNCTION     0.04     0.07    17.23     0  14:00        0.07
  SMH10388             JUNCTION     0.04     0.07    17.33     0  14:00        0.07
  SMH10389             JUNCTION     0.04     0.06    17.43     0  13:57        0.06
  SMH10390             JUNCTION     0.04     0.07    17.60     6  13:54        0.07
  SMH10414             JUNCTION     0.12     0.16     6.41     2  08:00        0.16
  SMH10422             JUNCTION     0.15     0.23     7.30     0  14:22        0.23
  SMH10443             JUNCTION     0.11     0.15    13.38     2  08:04        0.15
  SMH10444             JUNCTION     0.11     0.15    12.95     2  08:04        0.15
  SMH10445             JUNCTION     0.10     0.15    12.69     2  08:05        0.15
  SMH10446             JUNCTION     0.10     0.14    12.39     2  08:07        0.14
  SMH10447             JUNCTION     0.10     0.14    13.88     2  08:02        0.14
  SMH10495             JUNCTION     0.02     0.03    28.71     0  13:47        0.03
  SMH10526             JUNCTION     0.04     0.05     3.26     2  08:00        0.05
  SMH10527             JUNCTION     0.02     0.03    27.50     0  13:47        0.03
  SMH10528             JUNCTION     0.02     0.03    26.85     0  13:58        0.03
  SMH12558             JUNCTION     0.06     0.11    15.89     3  07:00        0.11
  SMH12559             JUNCTION     0.10     0.17    15.37     3  07:02        0.17
  SMH12560             JUNCTION     0.07     0.12    15.26     3  07:03        0.12
  SMH12561             JUNCTION     0.08     0.14    16.03     3  06:59        0.14
  SMH12564             JUNCTION     0.03     0.06    17.67     3  06:58        0.06
  SMH12565             JUNCTION     0.06     0.12    17.89     3  06:57        0.12
  SMH12567             JUNCTION     0.06     0.12    18.09     3  06:57        0.11
  SMH12569             JUNCTION     0.06     0.10    18.43     3  06:56        0.10
  SMH12582             JUNCTION     0.06     0.10    16.30     3  06:58        0.10
  SMH12583             JUNCTION     0.06     0.10    15.54     3  07:01        0.10
  SMH12585             JUNCTION     0.05     0.10    19.08     3  06:55        0.10
  SMH12589             JUNCTION     0.06     0.10    19.46     3  06:54        0.10
  SMH12591             JUNCTION     0.05     0.09    19.62     3  06:53        0.09
  SMH12593             JUNCTION     0.04     0.08    19.98     3  06:52        0.08
  SMH12600             JUNCTION     0.04     0.08    20.42     1  06:41        0.08
  SMH12614             JUNCTION     0.05     0.10    18.76     3  06:55        0.10
  SMH12638             JUNCTION     0.04     0.09    20.81     1  06:39        0.09
  SMH12639             JUNCTION     0.05     0.12    21.20     1  06:38        0.11
  SMH12640             JUNCTION     0.03     0.07    21.07     1  06:38        0.07
  SMH12641             JUNCTION     0.03     0.07    21.39     1  06:37        0.07
  SMH12642             JUNCTION     0.03     0.07    21.72     1  06:37        0.07
  SMH12670             JUNCTION     0.04     0.09    26.16     1  06:35        0.09
  SMH12672             JUNCTION     0.03     0.08    25.84     1  06:35        0.08
  SMH12673             JUNCTION     0.04     0.11    25.43     1  06:35        0.11
  SMH12674             JUNCTION     0.02     0.06    22.50     1  06:36        0.05
  SMH12714             JUNCTION     0.02     0.04    25.25     1  06:36        0.04
  SMH12718             JUNCTION     0.07     0.13    14.86     3  07:05        0.13
  SMH12720             JUNCTION     0.06     0.12    15.11     3  07:04        0.11
  SMH12760             JUNCTION     0.02     0.03     4.68     4  07:56        0.03
  SMH12761             JUNCTION     0.03     0.04     4.00     5  07:54        0.04
  SMH12763             JUNCTION     0.04     0.05     3.59     2  08:00        0.05
  SMH12766             JUNCTION     0.04     0.05     3.74     1  07:45        0.05
  SMH12768             JUNCTION     0.02     0.03     8.30     1  07:37        0.03
  SMH12770             JUNCTION     0.02     0.02     9.00     1  07:29        0.02
  SMH12809             JUNCTION     0.04     0.08    16.45     3  06:57        0.08
  SMH12819             JUNCTION     0.02     0.02     9.67     1  07:16        0.02
  SMH12901             JUNCTION     0.10     0.24     6.91     4  08:53        0.24
  SMH12902             JUNCTION     0.04     0.07     9.33     1  08:31        0.07
  SMH12903             JUNCTION     0.07     0.13     6.67     4  08:53        0.13
  SMH12906             JUNCTION     0.02     0.03    11.35     1  09:00        0.03
  SMH12908             JUNCTION     0.05     0.07     6.77     1  09:00        0.07
  SMH12909             JUNCTION     0.04     0.07     7.12     1  09:00        0.07
  SMH12923             JUNCTION     0.03     0.05    17.98     2  08:49        0.05
  SMH12931             JUNCTION     0.03     0.04    17.19     2  08:50        0.04
  SMH12932             JUNCTION     0.03     0.05    15.73     1  08:59        0.05
  SMH12933             JUNCTION     0.03     0.05    16.26     1  08:54        0.05
  SMH12934             JUNCTION     0.03     0.04    15.15     1  09:00        0.04
  SMH12936             JUNCTION     0.04     0.06     8.05     2  08:58        0.06
  SMH12938             JUNCTION     0.03     0.04    14.45     3  08:53        0.04
  SMH12939             JUNCTION     0.03     0.05    13.14     1  09:00        0.05
  SMH12940             JUNCTION     0.01     0.01    13.30     1  09:00        0.01
  SMH12941             JUNCTION     0.01     0.01    13.46     1  09:00        0.01
  SMH12942             JUNCTION     0.04     0.06    12.92     1  09:00        0.06
  SMH12943             JUNCTION     0.04     0.06    12.83     1  09:00        0.06
  SMH12944             JUNCTION     0.03     0.05    12.74     1  09:00        0.05
  SMH12946             JUNCTION     0.04     0.06    12.48     1  09:00        0.06
  SMH12947             JUNCTION     0.04     0.06    12.16     1  09:01        0.06
  SMH12948             JUNCTION     0.04     0.06    11.91     1  09:01        0.06
  SMH12950             JUNCTION     0.04     0.06    11.69     1  09:01        0.06
  SMH12954             JUNCTION     0.03     0.08    11.66     4  08:59        0.08
  SMH12957             JUNCTION     0.03     0.07    11.21     4  08:59        0.07
  SMH12961             JUNCTION     0.07     0.10     4.03     1  08:47        0.10
  SMH12965             JUNCTION     0.02     0.06    11.96     2  08:57        0.06
  SMH12966             JUNCTION     0.03     0.07    10.48     1  08:30        0.07
  SMH12967             JUNCTION     0.03     0.07    10.80     4  09:00        0.07
  SMH13009             JUNCTION     0.04     0.06     8.94     2  08:29        0.06
  SMH13020             JUNCTION     0.04     0.06     8.84     1  08:51        0.06
  SMH13021             JUNCTION     0.07     0.18    13.29     1  08:59        0.18
  SMH13032             JUNCTION     0.01     0.01    16.66     1  09:00        0.01
  SMH13033             JUNCTION     0.01     0.01    16.93     1  08:51        0.01
  SMH13034             JUNCTION     0.00     0.01    16.15     1  09:00        0.01
  SMH13035             JUNCTION     0.00     0.01    14.58     1  09:00        0.01
  SMH13048             JUNCTION     0.01     0.01    17.20     1  08:27        0.01
  SMH13067             JUNCTION     0.08     0.16    12.81     1  09:01        0.15
  SMH13077             JUNCTION     0.09     0.16    12.04     1  09:02        0.16
  SMH13078             JUNCTION     0.06     0.10    12.29     1  09:00        0.10
  SMH13079             JUNCTION     0.08     0.14    11.61     3  09:06        0.14
  SMH13080             JUNCTION     0.10     0.15    11.27     2  08:49        0.15
  SMH13083             JUNCTION     0.10     0.16    11.12     2  08:50        0.16
  SMH13084             JUNCTION     0.09     0.16    11.84     2  08:48        0.16
  SMH13087             JUNCTION     0.09     0.16    12.21     1  09:01        0.15
  SMH13120             JUNCTION     0.11     0.20    12.42     0  03:03        0.20
  SMH13121             JUNCTION     0.10     0.20    12.12     0  03:04        0.20
  SMH13170             JUNCTION     0.10     0.18    12.71     0  03:02        0.18
  SMH13171             JUNCTION     0.07     0.12    13.82     0  03:01        0.12
  SMH13172             JUNCTION     0.08     0.13    13.36     0  03:01        0.13
  SMH13177             JUNCTION     0.14     0.27    11.45     0  03:00        0.27
  SMH13178             JUNCTION     0.10     0.18    11.81     0  03:04        0.18
  SMH13179             JUNCTION     0.14     0.27    11.53     0  03:00        0.27
  SMH13180             JUNCTION     0.13     0.24    11.29     0  03:00        0.24
  SMH13183             JUNCTION     0.06     0.11    16.29     0  03:00        0.11
  SMH13184             JUNCTION     0.12     0.22    17.20     0  03:00        0.22
  SMH13185             JUNCTION     0.06     0.11    14.80     0  03:01        0.11
  SMH13186             JUNCTION     0.14     0.24    17.30     0  03:00        0.24
  SMH13187             JUNCTION     0.08     0.15    17.62     0  03:08        0.15
  SMH13188             JUNCTION     0.09     0.18    17.38     6  03:00        0.18
  SMH13190             JUNCTION     0.07     0.13    16.96     0  03:00        0.13
  SMH13192             JUNCTION     0.09     0.16    17.86     0  03:07        0.16
  SMH13193             JUNCTION     0.10     0.19    17.96     0  03:06        0.19
  SMH13201             JUNCTION     0.09     0.17    18.23     0  03:06        0.17
  SMH13202             JUNCTION     0.09     0.17    18.72     0  03:01        0.17
  SMH13203             JUNCTION     0.09     0.16    18.49     0  03:06        0.16
  SMH13212             JUNCTION     0.05     0.10    20.98     0  03:02        0.10
  SMH13213             JUNCTION     0.04     0.07    21.72     0  03:01        0.07
  SMH13214             JUNCTION     0.03     0.05    20.60     0  03:02        0.05
  SMH13215             JUNCTION     0.05     0.10    20.80     0  03:02        0.10
  SMH13216             JUNCTION     0.05     0.08    20.51     0  03:00        0.08
  SMH13256             JUNCTION     0.12     0.22    10.69     0  03:09        0.22
  SMH132620            JUNCTION     0.13     0.19     2.54     3  09:00        0.19
  SMH13268             JUNCTION     0.05     0.10    22.25     0  02:57        0.10
  SMH13269             JUNCTION     0.05     0.10    22.07     0  03:01        0.10
  SMH132690            JUNCTION     0.13     0.20     2.02     3  09:02        0.20
  SMH13270             JUNCTION     0.05     0.10    22.41     0  02:49        0.10
  SMH13271             JUNCTION     0.05     0.10    22.61     0  03:00        0.10
  SMH13272             JUNCTION     0.04     0.06    14.83     2  08:59        0.06
  SMH13284             JUNCTION     0.04     0.06    13.48     1  08:43        0.06
  SMH13285             JUNCTION     0.06     0.09    13.75     1  09:00        0.09
  SMH13286             JUNCTION     0.08     0.11    14.04     3  09:00        0.11
  SMH13287             JUNCTION     0.04     0.05    14.14     1  09:02        0.05
  SMH13288             JUNCTION     0.06     0.09    13.96     1  09:00        0.09
  SMH132890            JUNCTION     0.05     0.07    10.46     3  08:59        0.07
  SMH13338             JUNCTION     0.04     0.07    25.89     0  02:54        0.07
  SMH13339             JUNCTION     0.03     0.05    25.37     6  02:48        0.05
  SMH13340             JUNCTION     0.05     0.10    23.97     0  02:58        0.10
  SMH13344             JUNCTION     0.05     0.11    23.86     0  02:44        0.11
  SMH13348             JUNCTION     0.05     0.10    23.75     6  02:46        0.10
  SMH13349             JUNCTION     0.05     0.10    23.53     6  02:50        0.10
  SMH13350             JUNCTION     0.05     0.10    23.40     0  03:00        0.10
  SMH13351             JUNCTION     0.05     0.09    23.19     0  02:57        0.09
  SMH13352             JUNCTION     0.05     0.09    23.05     6  02:56        0.09
  SMH13353             JUNCTION     0.04     0.08    22.88     0  03:00        0.08
  SMH13354             JUNCTION     0.06     0.11    22.95     0  03:00        0.11
  SMH133969            JUNCTION     0.07     0.11     8.96     6  05:01        0.11
  SMH134085            JUNCTION     0.23     0.35    -2.30     3  09:15        0.35
  SMH134371            JUNCTION     0.05     0.08     9.63     3  08:53        0.08
  SMH13449             JUNCTION     0.14     0.25    11.01     0  03:02        0.25
  SMH13456             JUNCTION     0.03     0.04     7.13     1  09:00        0.04
  SMH13457             JUNCTION     0.03     0.04     5.06     3  08:32        0.04
  SMH13458             JUNCTION     0.02     0.03     6.40     1  09:00        0.03
  SMH13459             JUNCTION     0.03     0.04     6.74     1  09:00        0.04
  SMH13462             JUNCTION     0.03     0.04     7.54     1  09:00        0.04
  SMH13466             JUNCTION     0.03     0.04     8.10     1  08:59        0.04
  SMH13469             JUNCTION     0.03     0.04     7.83     1  09:00        0.04
  SMH13496             JUNCTION     0.01     0.02    14.06     1  08:27        0.02
  SMH13530             JUNCTION     0.10     0.22    10.85     5  09:01        0.21
  SMH13531             JUNCTION     0.09     0.19    10.71     5  09:02        0.19
  SMH13532             JUNCTION     0.11     0.22    10.47     5  09:02        0.21
  SMH13533             JUNCTION     0.07     0.13    10.29     5  09:03        0.13
  SMH13534             JUNCTION     0.08     0.15     9.32     5  09:04        0.14
  SMH135552            JUNCTION     0.13     0.19    -0.56     3  09:10        0.19
  SMH13559             JUNCTION     0.15     0.24     7.76     5  09:07        0.24
  SMH13560             JUNCTION     0.02     0.03    12.60     4  07:47        0.03
  SMH13562             JUNCTION     0.12     0.20     7.41     5  09:07        0.19
  SMH13564             JUNCTION     0.01     0.03     7.79     2  08:33        0.03
  SMH13565             JUNCTION     0.13     0.21     7.23     5  09:08        0.21
  SMH13566             JUNCTION     0.01     0.04     7.86     2  08:31        0.04
  SMH13567             JUNCTION     0.10     0.16     7.03     5  09:08        0.15
  SMH13568             JUNCTION     0.16     0.25     6.77     5  09:09        0.25
  SMH13571             JUNCTION     0.11     0.18     6.63     5  09:10        0.18
  SMH135717            JUNCTION     0.00     0.00     3.95     0  00:00        0.00
  SMH13572             JUNCTION     0.12     0.19     6.39     5  09:10        0.19
  SMH13574             JUNCTION     0.12     0.20     6.20     5  09:11        0.19
  SMH13575             JUNCTION     0.12     0.19     6.03     5  09:12        0.19
  SMH13576             JUNCTION     0.04     0.05     7.08     2  07:46        0.05
  SMH13577             JUNCTION     0.06     0.07     7.35     5  07:46        0.07
  SMH13578             JUNCTION     0.09     0.17     7.83     5  09:06        0.17
  SMH13579             JUNCTION     0.10     0.17     8.08     4  09:09        0.17
  SMH13582             JUNCTION     0.06     0.08     7.54     2  07:38        0.08
  SMH13583             JUNCTION     0.05     0.06     7.76     1  07:18        0.06
  SMH13584             JUNCTION     0.02     0.03    10.83     2  07:58        0.03
  SMH135880            JUNCTION     0.08     0.12     9.39     6  05:00        0.12
  SMH13590             JUNCTION     0.10     0.17     2.50     4  09:01        0.17
  SMH13591             JUNCTION     0.09     0.16     2.63     4  09:00        0.16
  SMH13593             JUNCTION     0.12     0.19     2.24     3  08:58        0.19
  SMH13595             JUNCTION     0.02     0.03     4.92     3  08:52        0.03
  SMH13596             JUNCTION     0.03     0.05     3.14     4  08:59        0.05
  SMH13597             JUNCTION     0.03     0.05     2.91     1  08:56        0.05
  SMH13611             JUNCTION     0.10     0.18     2.35     4  09:01        0.17
  SMH136188            JUNCTION     0.13     0.19    -0.15     3  09:09        0.19
  SMH13658             JUNCTION     0.01     0.04     8.57     2  08:30        0.04
  SMH13659             JUNCTION     0.01     0.04     8.15     2  08:31        0.04
  SMH13662             JUNCTION     0.11     0.17     5.73     5  09:13        0.17
  SMH13674             JUNCTION     0.23     0.52     4.87     1  08:15        0.45
  SMH13675             JUNCTION     0.24     0.38     4.24     3  09:00        0.38
  SMH13676             JUNCTION     0.23     0.34     3.89     3  09:01        0.34
  SMH136858            JUNCTION     0.00     0.00     1.27     0  00:00        0.00
  SMH13691             JUNCTION     0.02     0.04     9.63     3  08:58        0.04
  SMH13692             JUNCTION     0.02     0.05    10.02     3  08:58        0.05
  SMH13693             JUNCTION     0.02     0.06    10.33     3  08:56        0.06
  SMH13694             JUNCTION     0.02     0.06    10.51     3  08:55        0.06
  SMH13696             JUNCTION     0.02     0.06    10.82     3  08:54        0.06
  SMH13698             JUNCTION     0.02     0.07    11.36     5  08:31        0.07
  SMH13699             JUNCTION     0.02     0.07    11.07     5  08:32        0.07
  SMH13715             JUNCTION     0.10     0.18     8.83     4  09:07        0.18
  SMH13716             JUNCTION     0.11     0.21     8.75     4  09:07        0.21
  SMH13717             JUNCTION     0.09     0.16     8.56     4  09:08        0.16
  SMH13747             JUNCTION     0.02     0.03     8.22     3  08:44        0.03
  SMH13749             JUNCTION     0.01     0.02     7.83     3  08:57        0.02
  SMH13750             JUNCTION     0.02     0.03     5.99     2  08:26        0.03
  SMH137741            JUNCTION     0.09     0.13    -1.17     4  07:30        0.13
  SMH137831            JUNCTION     0.13     0.20     0.15     3  09:09        0.20
  SMH138195            JUNCTION     0.12     0.19     0.47     3  09:07        0.19
  SMH140318            JUNCTION     0.07     0.11     4.32     2  09:01        0.11
  SMH141189            JUNCTION     0.05     0.08    10.12     3  09:00        0.08
  SMH141479            JUNCTION     0.05     0.09    -0.89     6  05:00        0.09
  SMH141645            JUNCTION     0.10     0.14     4.24     1  09:00        0.14
  SMH141796            JUNCTION     0.08     0.13     9.13     6  05:00        0.13
  SMH142424            JUNCTION     0.10     0.16    -1.55     4  07:33        0.16
  SMH142595            JUNCTION     0.05     0.08     9.72     1  08:50        0.08
  SMH142931            JUNCTION     0.09     0.14     1.54     3  09:03        0.14
  SMH143453            JUNCTION     0.06     0.10     2.13     6  05:00        0.10
  SMH143457            JUNCTION     0.05     0.09     2.32     6  05:00        0.09
  SMH143467            JUNCTION     0.06     0.10     1.21     6  05:00        0.10
  SMH143469            JUNCTION     0.06     0.09     1.64     6  05:00        0.09
  SMH143474            JUNCTION     0.05     0.09     1.89     6  05:00        0.09
  SMH143483            JUNCTION     0.05     0.08     2.93     6  05:00        0.08
  SMH143484            JUNCTION     0.04     0.07     3.29     0  04:59        0.07
  SMH14430             JUNCTION     0.01     0.02     7.37     5  08:58        0.02
  SMH14469             JUNCTION     0.02     0.07    20.94     2  09:01        0.07
  SMH14477             JUNCTION     0.04     0.06    21.89     6  14:00        0.06
  SMH14479             JUNCTION     0.06     0.09    16.72     6  14:00        0.09
  SMH14487             JUNCTION     0.15     0.20    25.40     1  08:18        0.20
  SMH145211            JUNCTION     0.09     0.14     0.72     3  09:06        0.14
  SMH14522             JUNCTION     0.03     0.05    27.13     0  13:56        0.05
  SMH14523             JUNCTION     0.04     0.07    27.36     0  13:56        0.07
  SMH14524             JUNCTION     0.04     0.07    27.65     0  13:47        0.07
  SMH145958            JUNCTION     0.08     0.13     8.52     6  05:03        0.13
  SMH146258            JUNCTION     0.05     0.09     9.99     1  08:56        0.09
  SMH146274            JUNCTION     0.14     0.22    -0.90     3  09:14        0.22
  SMH147375            JUNCTION     0.09     0.15     8.05     6  05:06        0.15
  SMH147450            JUNCTION     0.03     0.05    12.59     6  05:00        0.05
  SMH147719            JUNCTION     0.06     0.10    -0.69     6  05:00        0.10
  SMH148196            JUNCTION     0.21     0.31    -2.37     3  09:01        0.31
  SMH148638            JUNCTION     0.04     0.06     7.26     1  09:00        0.06
  SMH149506            JUNCTION     0.08     0.13     8.73     6  05:02        0.13
  SMH149948            JUNCTION     0.10     0.14    -1.90     4  07:33        0.14
  SMH150127            JUNCTION     0.04     0.06    11.16     6  05:00        0.06
  SMH151111            JUNCTION     0.06     0.09    10.26     2  08:52        0.09
  SMH151953            JUNCTION     0.02     0.03     4.88     1  08:44        0.03
  SMH151971            JUNCTION     0.05     0.08     3.85     0  04:58        0.08
  SMH152101            JUNCTION     0.05     0.08     9.89     1  09:00        0.08
  SMH152249            JUNCTION     0.10     0.15    -1.73     3  09:16        0.15
  SMH153088            JUNCTION     0.04     0.07    -0.29     6  05:00        0.07
  SMH153089            JUNCTION     0.05     0.09     0.92     0  05:00        0.09
  SMH153090            JUNCTION     0.06     0.10     1.10     6  05:00        0.10
  SMH153093            JUNCTION     0.05     0.09    -0.04     6  05:00        0.09
  SMH153095            JUNCTION     0.05     0.09     0.63     6  05:00        0.09
  SMH153097            JUNCTION     0.05     0.09     0.20     6  05:00        0.09
  SMH153273            JUNCTION     0.08     0.13     7.91     6  05:06        0.13
  SMH154052            JUNCTION     0.06     0.11    -0.51     6  05:00        0.11
  SMH154201            JUNCTION     0.09     0.13     1.15     3  09:05        0.13
  SMH15461             JUNCTION     0.02     0.03     5.37     1  07:55        0.03
  SMH15464             JUNCTION     0.03     0.04     5.68     2  07:45        0.04
  SMH15468             JUNCTION     0.02     0.03     7.89     4  07:44        0.03
  SMH15469             JUNCTION     0.02     0.03     7.24     1  07:44        0.03
  SMH15470             JUNCTION     0.03     0.04     5.86     1  07:54        0.04
  SMH15476             JUNCTION     0.03     0.04     4.86     1  09:01        0.04
  SMH15477             JUNCTION     0.00     0.00    -0.07     0  00:00        0.00
  SMH15479             JUNCTION     0.09     0.17     0.29     3  09:26        0.17
  SMH15480             JUNCTION     0.06     0.07    19.62     4  08:47        0.07
  SMH15481             JUNCTION     0.20     0.26    20.26     2  09:01        0.26
  SMH15482             JUNCTION     0.08     0.09    24.09     2  09:00        0.09
  SMH15483             JUNCTION     0.19     0.24    24.44     2  09:00        0.24
  SMH15484             JUNCTION     0.05     0.07     6.76     5  09:11        0.07
  SMH15487             JUNCTION     0.08     0.11     0.47     4  09:14        0.11
  SMH15488             JUNCTION     0.09     0.12     0.61     4  10:35        0.12
  SMH15489             JUNCTION     0.19     0.26     0.46     2  08:16        0.26
  SMH15491             JUNCTION     0.13     0.20     0.46     2  08:16        0.20
  SMH15492             JUNCTION     0.12     0.16     0.77     2  08:15        0.16
  SMH15493             JUNCTION     0.08     0.11     9.28     2  08:00        0.11
  SMH15494             JUNCTION     0.10     0.15    18.14     2  08:02        0.15
  SMH15495             JUNCTION     0.13     0.18    18.26     2  08:01        0.18
  SMH15498             JUNCTION     0.02     0.02     2.27     1  08:55        0.02
  SMH15499             JUNCTION     0.06     0.07     2.23     3  09:26        0.07
  SMH15500             JUNCTION     0.00     0.00     2.42     0  00:00        0.00
  SMH15511             JUNCTION     0.08     0.09    10.29     1  09:01        0.09
  SMH15512             JUNCTION     0.08     0.10    10.07     1  09:04        0.10
  SMH15513             JUNCTION     0.05     0.06     9.80     1  09:04        0.06
  SMH15514             JUNCTION     0.08     0.10     8.38     4  09:06        0.10
  SMH15515             JUNCTION     0.06     0.08     6.48     3  08:55        0.08
  SMH15516             JUNCTION     0.05     0.06     6.58     5  09:12        0.06
  SMH15522             JUNCTION     0.04     0.07    26.85     0  13:55        0.07
  SMH15523             JUNCTION     0.04     0.07    25.61     6  13:55        0.07
  SMH155510            JUNCTION     0.13     0.20    -1.29     3  09:15        0.20
  SMH15556             JUNCTION     0.04     0.06     2.98     2  08:00        0.06
  SMH155577            JUNCTION     0.07     0.12     8.30     6  05:05        0.12
  SMH15558             JUNCTION     0.07     0.10     1.64     2  08:00        0.10
  SMH15559             JUNCTION     0.03     0.04     1.67     2  08:00        0.04
  SMH15663             JUNCTION     0.03     0.04    14.16     1  06:39        0.04
  SMH15664             JUNCTION     0.02     0.04    13.59     1  06:59        0.04
  SMH15666             JUNCTION     0.02     0.03    12.58     3  06:39        0.03
  SMH15679             JUNCTION     0.01     0.02     9.79     5  07:00        0.02
  SMH15681             JUNCTION     0.03     0.05     6.65     5  06:59        0.05
  SMH15683             JUNCTION     0.03     0.05     6.45     5  06:40        0.05
  SMH15689             JUNCTION     0.05     0.09     1.84     3  07:41        0.09
  SMH15690             JUNCTION     0.07     0.11     1.13     1  07:43        0.11
  SMH15691             JUNCTION     0.04     0.06     0.83     1  07:43        0.06
  SMH15692             JUNCTION     0.05     0.10     0.22     1  07:44        0.10
  SMH15694             JUNCTION     0.04     0.06     0.34     1  07:13        0.06
  SMH15701             JUNCTION     0.04     0.08     2.41     3  07:40        0.08
  SMH15714             JUNCTION     0.04     0.06     9.41     1  09:00        0.06
  SMH15715             JUNCTION     0.05     0.08     8.92     1  08:25        0.08
  SMH15720             JUNCTION     0.07     0.11     7.85     1  09:03        0.11
  SMH15721             JUNCTION     0.08     0.15     7.61     1  08:31        0.15
  SMH15726             JUNCTION     0.12     0.21     7.81     6  03:06        0.21
  SMH15727             JUNCTION     0.13     0.23     8.14     6  03:06        0.22
  SMH15734             JUNCTION     0.05     0.08     2.71     2  09:00        0.08
  SMH15735             JUNCTION     0.15     0.24     1.00     2  09:00        0.24
  SMH15736             JUNCTION     0.08     0.14     0.86     2  09:00        0.14
  SMH15741             JUNCTION     0.11     0.18     8.00     2  08:56        0.18
  SMH15742             JUNCTION     0.13     0.23     8.45     6  03:05        0.23
  SMH15743             JUNCTION     0.08     0.15     4.14     5  07:07        0.15
  SMH15744             JUNCTION     0.08     0.14     4.62     5  07:06        0.14
  SMH15745             JUNCTION     0.07     0.13     4.94     5  07:05        0.13
  SMH15746             JUNCTION     0.07     0.12     5.37     5  07:05        0.12
  SMH15747             JUNCTION     0.07     0.12     5.86     5  07:04        0.12
  SMH15748             JUNCTION     0.07     0.12     6.40     5  07:03        0.12
  SMH15749             JUNCTION     0.09     0.16     7.09     5  07:02        0.16
  SMH15750             JUNCTION     0.07     0.12     6.84     5  07:02        0.12
  SMH15753             JUNCTION     0.08     0.13     9.95     2  07:00        0.13
  SMH15754             JUNCTION     0.08     0.13    10.42     2  07:00        0.13
  SMH15755             JUNCTION     0.13     0.21    10.83     4  07:10        0.21
  SMH15756             JUNCTION     0.10     0.17    10.73     2  06:59        0.17
  SMH15757             JUNCTION     0.07     0.11     7.61     5  07:00        0.11
  SMH15758             JUNCTION     0.07     0.13     8.07     5  07:00        0.13
  SMH15759             JUNCTION     0.07     0.13     8.56     5  07:00        0.13
  SMH15760             JUNCTION     0.06     0.09     9.62     2  07:00        0.09
  SMH15761             JUNCTION     0.07     0.12     9.05     5  07:00        0.12
  SMH15768             JUNCTION     0.05     0.07    15.55     1  09:01        0.07
  SMH15786             JUNCTION     0.05     0.09    14.23     3  07:09        0.09
  SMH15787             JUNCTION     0.14     0.24    13.68     1  07:00        0.24
  SMH15788             JUNCTION     0.14     0.22    13.62     4  07:01        0.22
  SMH15789             JUNCTION     0.07     0.12    11.26     4  07:09        0.12
  SMH15790             JUNCTION     0.10     0.18    12.39     4  07:07        0.18
  SMH15791             JUNCTION     0.09     0.15    12.63     4  07:05        0.15
  SMH15792             JUNCTION     0.09     0.16    13.48     4  07:02        0.16
  SMH15793             JUNCTION     0.08     0.14    12.93     4  07:03        0.14
  SMH15794             JUNCTION     0.09     0.15    13.21     4  07:03        0.15
  SMH15795             JUNCTION     0.10     0.18    12.79     4  07:05        0.18
  SMH15796             JUNCTION     0.06     0.10    12.22     4  07:07        0.10
  SMH15798             JUNCTION     0.02     0.03    13.34     1  08:56        0.03
  SMH15799             JUNCTION     0.02     0.03    12.88     4  09:00        0.03
  SMH15800             JUNCTION     0.02     0.03    12.45     1  08:59        0.03
  SMH15801             JUNCTION     0.02     0.03    11.49     5  09:00        0.03
  SMH15802             JUNCTION     0.02     0.03    10.18     1  09:01        0.03
  SMH15803             JUNCTION     0.02     0.03     9.75     1  09:01        0.03
  SMH15804             JUNCTION     0.02     0.03     9.24     1  09:02        0.03
  SMH15805             JUNCTION     0.02     0.03     8.96     1  09:02        0.03
  SMH15806             JUNCTION     0.02     0.03     8.55     1  09:03        0.03
  SMH15807             JUNCTION     0.02     0.03     8.11     1  09:03        0.03
  SMH15809             JUNCTION     0.02     0.03    10.85     1  09:00        0.03
  SMH15810             JUNCTION     0.02     0.03    10.61     1  09:00        0.03
  SMH15822             JUNCTION     0.04     0.05     2.74     2  08:01        0.05
  SMH15823             JUNCTION     0.04     0.05     2.93     2  08:00        0.05
  SMH15824             JUNCTION     0.04     0.06     2.51     2  08:02        0.06
  SMH15825             JUNCTION     0.04     0.06     2.33     2  08:00        0.06
  SMH15826             JUNCTION     0.04     0.06     2.06     2  08:00        0.06
  SMH15827             JUNCTION     0.05     0.06     1.84     2  08:00        0.06
  SMH15838             JUNCTION     0.04     0.06    19.39     2  08:00        0.06
  SMH15842             JUNCTION     0.10     0.17     8.93     2  09:02        0.17
  SMH15843             JUNCTION     0.05     0.09     5.56     2  09:14        0.09
  SMH15844             JUNCTION     0.02     0.02     8.81     2  08:01        0.02
  SMH15847             JUNCTION     0.08     0.12     4.31     2  08:00        0.12
  SMH15849             JUNCTION     0.07     0.19    18.21     6  14:00        0.18
  SMH15865             JUNCTION     0.02     0.02    22.74     3  08:57        0.02
  SMH15873             JUNCTION     0.01     0.01    22.36     2  08:30        0.01
  SMH15874             JUNCTION     0.02     0.03    14.42     1  08:27        0.03
  SMH16017             JUNCTION     0.05     0.07    27.92     0  13:41        0.07
  SMH16069             JUNCTION     0.10     0.13     3.05     2  08:15        0.13
  SMH16369             JUNCTION     0.07     0.11     5.36     1  09:00        0.11
  SMH16394             JUNCTION     0.11     0.23    12.92     0  03:02        0.22
  SMH16447             JUNCTION     0.08     0.13     8.00     1  09:00        0.13
  SMH16448             JUNCTION     0.09     0.14     7.90     1  09:00        0.14
  SMH16449             JUNCTION     0.05     0.07     7.67     1  09:01        0.07
  SMH16450             JUNCTION     0.05     0.07     6.58     1  09:01        0.07
  SMH16451             JUNCTION     0.08     0.12     5.09     1  09:00        0.12
  SMH16452             JUNCTION     0.08     0.12     4.90     1  09:00        0.12
  SMH16453             JUNCTION     0.09     0.14     4.77     1  09:00        0.14
  SMH16454             JUNCTION     0.08     0.13     4.60     1  09:00        0.13
  SMH16455             JUNCTION     0.08     0.13     4.35     1  09:00        0.13
  SMH16456             JUNCTION     0.06     0.10     4.10     1  09:00        0.10
  SMH16457             JUNCTION     0.09     0.15     3.59     5  08:39        0.15
  SMH16458             JUNCTION     0.11     0.19     3.40     1  08:51        0.19
  SMH16459             JUNCTION     0.05     0.08     7.75     2  08:56        0.08
  SMH16460             JUNCTION     0.05     0.08     5.21     2  08:56        0.08
  SMH16461             JUNCTION     0.09     0.17     4.43     2  08:56        0.17
  SMH16462             JUNCTION     0.09     0.18     4.30     2  08:57        0.17
  SMH16463             JUNCTION     0.08     0.16     4.13     2  08:58        0.15
  SMH16464             JUNCTION     0.09     0.17     3.89     2  08:59        0.17
  SMH16465             JUNCTION     0.05     0.15    13.60     3  08:47        0.15
  SMH16466             JUNCTION     0.05     0.14    12.84     3  08:47        0.13
  SMH16467             JUNCTION     0.05     0.14    11.91     3  08:47        0.13
  SMH16468             JUNCTION     0.04     0.10    11.04     3  08:47        0.09
  SMH16469             JUNCTION     0.07     0.18     9.03     3  08:48        0.17
  SMH16470             JUNCTION     0.09     0.17     8.74     2  08:54        0.17
  SMH16471             JUNCTION     0.08     0.16     8.31     2  08:55        0.16
  SMH16472             JUNCTION     0.09     0.17     8.04     2  08:56        0.17
  SMH16473             JUNCTION     0.08     0.16     3.71     2  08:59        0.16
  SMH16474             JUNCTION     0.08     0.15     3.54     2  09:00        0.15
  SMH16475             JUNCTION     0.09     0.16     3.27     4  08:59        0.16
  SMH16476             JUNCTION     0.09     0.17     3.02     4  09:00        0.17
  SMH16477             JUNCTION     0.09     0.16     2.83     4  09:00        0.16
  SMH16478             JUNCTION     0.10     0.18     2.74     4  09:01        0.18
  SMH16480             JUNCTION     0.00     0.00     5.12     0  00:00        0.00
  SMH17862             JUNCTION     0.02     0.03    11.18     1  09:00        0.03
  SMH19209             JUNCTION     0.08     0.12     8.42     3  08:47        0.12
  SMH19512             JUNCTION     0.11     0.17     8.56     1  09:00        0.17
  SMH19815             JUNCTION     0.09     0.15     8.62     1  09:00        0.15
  SMH200316            JUNCTION     0.07     0.13    14.57     3  07:06        0.13
  SMH200317            JUNCTION     0.06     0.10    14.50     3  07:07        0.10
  SMH200326            JUNCTION     0.05     0.11    -3.88     4  07:57        0.11
  SMH200327            JUNCTION     0.04     0.07    -3.65     4  07:58        0.07
  SMH200328            JUNCTION     0.04     0.07    -3.39     4  07:58        0.07
  SMH200329            JUNCTION     0.04     0.14    -3.88     4  07:57        0.13
  SMH200330            JUNCTION     0.05     0.08    -2.85     4  07:57        0.08
  SMH200331            JUNCTION     0.04     0.07    -2.26     4  07:55        0.07
  SMH200332            JUNCTION     0.04     0.07    -1.48     4  07:52        0.07
  SMH200333            JUNCTION     0.04     0.07    -0.87     4  07:52        0.07
  SMH200334            JUNCTION     0.04     0.07    -0.46     4  07:51        0.07
  SMH200335            JUNCTION     0.04     0.07    -0.08     2  07:59        0.07
  SMH200336            JUNCTION     0.04     0.07     0.23     2  07:58        0.07
  SMH200337            JUNCTION     0.04     0.06     0.53     2  07:58        0.06
  SMH200338            JUNCTION     0.04     0.06     1.04     4  07:39        0.06
  SMH200339            JUNCTION     0.03     0.07     1.62     4  07:38        0.07
  SMH200564            JUNCTION     0.15     0.26    -4.92     5  09:11        0.26
  SMH200565            JUNCTION     0.15     0.26    -5.00     1  09:11        0.26
  SMH200566            JUNCTION     0.23     0.33    -5.05     3  08:56        0.33
  SMH200567            JUNCTION     0.04     0.05    -1.34     2  08:00        0.05
  SMH200568            JUNCTION     0.00     0.00    -0.26     0  00:00        0.00
  SMH200937            JUNCTION     0.06     0.12    40.35     6  14:01        0.12
  SMH200938            JUNCTION     0.05     0.10    38.61     6  14:01        0.10
  SMH200939            JUNCTION     0.18     0.34    35.36     6  14:02        0.34
  SMH200940            JUNCTION     0.05     0.11    34.08     6  14:02        0.11
  SMH200941            JUNCTION     0.05     0.09    31.60     6  14:03        0.09
  SMH200942            JUNCTION     0.04     0.09    27.17     6  14:03        0.09
  SMH200943            JUNCTION     0.05     0.12    21.32     6  14:03        0.12
  SMH200944            JUNCTION     0.05     0.09    20.53     6  14:03        0.09
  SMH200945            JUNCTION     0.06     0.13    17.94     6  14:03        0.13
  SMH200946            JUNCTION     0.05     0.10    17.43     6  14:04        0.10
  SMH200947            JUNCTION     0.08     0.15    13.45     6  14:04        0.15
  SMH200948            JUNCTION     0.08     0.16    13.11     6  14:05        0.16
  SMH200949            JUNCTION     0.10     0.20    12.30     6  14:06        0.20
  SMH200950            JUNCTION     0.08     0.15    12.07     6  14:07        0.15
  SMH200951            JUNCTION     0.07     0.13    11.40     6  14:07        0.13
  SMH200952            JUNCTION     0.11     0.20    10.47     6  13:44        0.20
  SMH200953            JUNCTION     0.10     0.17    10.34     6  13:45        0.17
  SMH200954            JUNCTION     0.11     0.20    10.08     6  13:46        0.20
  SMH200955            JUNCTION     0.09     0.18     9.95     0  14:00        0.18
  SMH200956            JUNCTION     0.07     0.14    12.71     6  14:05        0.14
  SMH201081            JUNCTION     0.08     0.11    -0.29     4  08:00        0.11
  SMH201082            JUNCTION     0.08     0.11    -0.60     4  08:00        0.11
  SMH201083            JUNCTION     0.08     0.12    -0.77     4  08:00        0.12
  SMH201084            JUNCTION     0.09     0.12    -0.91     4  08:01        0.12
  SMH201085            JUNCTION     0.07     0.10    -1.14     4  08:01        0.10
  SMH204958            JUNCTION     0.03     0.05     5.10     0  04:41        0.05
  SMH204980            JUNCTION     0.19     0.28     2.81     3  09:00        0.28
  SMH206004            JUNCTION     0.03     0.04     4.65     1  08:59        0.04
[...]
  RM165A3_DN375               0.01      0.01    165.41      0.01         0.01
  RM165B1_DN450              41.80     41.87    162.02      0.01         0.53
  RM165B2_DN450              41.77    166.78     41.78      0.01         4.52
  RM165C_DN450              162.06    162.18    166.01      0.01         0.84
  RM17886                     0.01      0.01    165.81      8.38         0.01
  RM17887                   155.17    167.53    155.27     26.66        28.51
  RM17887A                  130.94    130.94    167.53      0.01         0.01
  RM17887D                   98.51     99.60    130.94      0.39         2.48
  RM17917                     0.01      0.01    161.52      0.01         0.01
  RM17922                     0.01      0.01    166.03      0.01         0.01
  RM17925                    99.58     99.58    166.90     27.28        29.68
  RM17925B                  166.50    166.51    166.89     23.09         0.01
  RM17925C                    0.01      0.01    166.51      0.01         0.01
  RM17932                   109.65    111.61    161.63      0.01         0.43
  RM17932B                    0.01      0.01    111.61     70.79         0.01
  RM17939                   161.87    161.88    164.65      0.01         1.16
  RM17939-1                 161.67    164.20    161.88      0.01        18.07
  RM17939-4                 164.20    164.20    164.41      0.01         2.93
  RM17940                   161.89    164.90    163.36      0.02        27.60
  RM17940A                  130.48    164.75    130.52     22.12        99.20
  RM17941                   129.82    130.58    164.80      0.01         0.37
  RM17943                    73.51     75.35    162.79     28.15         0.23
  RM17943-2                   0.01      0.01     75.33     27.44         0.01
  RM17944                    16.41     17.27     93.88      0.01         0.59
  RM17944-2                   0.01     17.28      0.01     47.81         0.01
  RM17946                     0.01      0.01    163.88      0.01         0.01
  RM17949                    97.34    158.44    101.95      0.01         6.28
  RM17949-2                   0.01      0.01    158.44      0.01         0.01
  RM17950                   165.76    166.01    166.03      0.01         1.33
  RM17950-2                   0.01      0.01    166.01      0.01         0.01
  RM17951                     0.01      0.01    165.90      0.01         0.01
  RM17963                     0.01      0.01    133.84      9.32         0.01
  RM17971                    31.95     32.46    163.74      0.01         0.12
  RM17971-2                   0.01      0.01     32.46      0.01         0.01
  RM18165                   141.83    141.83    164.75      0.01         0.01
  RM18165B                  133.16    152.74    141.80      0.01        35.68
  RM18165C                   18.51     18.59    152.73      0.01         0.07
  RM18165N                   18.64     18.64    164.61      0.01         0.86
  RM18169                     7.88    133.84      8.20     12.31         0.05
  RM181A                     97.69    165.21     98.16      0.01        51.68
  RM181J                     63.31     63.31    165.21      0.01         0.05
  RM18918A                    0.01      0.01    160.32      0.01         0.01
  RM19267                    89.90    166.64     90.13     19.25        62.62
  RM19267-2                   0.01      0.01    166.64      0.01         0.01
  RM19543                     0.01      0.01    166.42      0.01         0.01
  RM20388                     0.01      0.01    161.23      0.01         0.01
  RM20388_2                   0.01      0.01    161.23      0.01         0.01
  RM20410                   161.76    167.12    162.07     18.43       141.15
  RM20411-2                   0.01      0.01    167.12      0.01         0.01
  RM21955                     7.43      8.66      9.98      6.24         4.91
  RM35300                    62.66     63.18    162.43     29.23        28.53
  RM4950                    120.27    165.31    121.68      0.03        91.02
  RM4950-2                    0.01      0.01    165.31      0.01         0.01
  RM677                     166.77    167.23    166.94      0.03       101.03
  RM677-2                     0.01      0.01    167.23      0.01         0.01
  RM84183                     0.01      0.01      0.01     46.99         0.01
  RM84184                     0.01      0.01      0.01     36.57         0.01
  RM84188                     0.01      0.01      0.01     75.99         0.01
  RM84189                     0.01      0.01      0.01     57.92         0.01
  RM9583                      0.01      0.01    146.21     39.71         0.01
  RMN108A_2                   1.57      1.57    164.72      0.01         0.01
  RMN108A_3                   1.59      1.59    122.39      0.01         0.04
  RMN108_1                  165.35    165.35    166.89      0.01         0.79
  RMN108_12                 163.04    163.04    166.08      0.01         0.01
  RMN108_13                 162.92    164.99    163.03      3.36        59.82
  RMN108_1A                 166.15    166.16    166.89      0.01        16.32
  RMN108_2                  165.20    165.35    166.69      0.01        52.91
  RMS001-1                   91.03    167.14     91.26      0.05        44.42
  RMS001-2                   45.82     45.82    167.14      0.01         0.27
  RMS001-3                   45.64     45.64    166.08      0.01         0.48
  RMS001-4                  166.34    166.69    166.34     49.32        44.36
  RMS001-4D                 165.67    165.67    166.34      0.01         0.01
  RMS001-5                  165.32    165.34    165.67     34.72         1.38
  RMS001-6                   14.58     14.58    164.77      0.01         0.01
  RMS001-7                   14.72     14.72    163.33      0.01         0.55
  SGM-026609                165.98    165.98    165.98      0.01         0.38
  SGM202002                   0.01      0.01      0.01     10.61         0.01
  SM017964                    0.37      0.37      5.67      0.01         0.01
  SM026609                    0.01      0.01    165.98      0.01         0.01
  SM028749                    0.01      0.01      0.01     59.37         0.01
  SM11107                     0.01      0.01      0.01     23.83         0.01
  SM13541                     0.01      0.01      0.01     19.51         0.01
  SM14007                     0.24      0.24      1.59      0.01         0.01
  SM14014                     1.48      6.47      1.48      7.01         1.48
  SM14016                     1.63      1.71      1.63      0.01         1.62
  SM14019                     0.01      5.99      0.01      6.15         0.01
  SM14020                     5.93      6.33      5.99      0.01         5.93
  SM14021                     5.82      6.83      5.82      7.21         5.82
  SM14022                     6.06      6.06      6.36      0.01         0.63
  SM14023                     1.63      1.63      5.71      0.01         0.06
  SM14029                     1.14      1.14      6.59      0.01         0.01
  SM14030                     0.01     13.96      0.01     30.64         0.01
  SM14031                     0.01      1.19      0.01      1.02         0.01
  SM14122                     0.01      0.01      0.01      5.15         0.01
  SM14933                     0.01      0.80      0.01      0.01         0.01
  SM17486                     0.01      0.01      0.01     39.43         0.01
  SM17488                     0.01      0.01      0.37      0.01         0.01
  SM17533                     0.01      0.01      0.01      1.12         0.01
  SM17775                     0.01      0.01      0.01    134.61         0.01
  SM17804                     0.01      0.01     45.19      0.01         0.01
  SM17805                    54.95     58.12     70.46      7.59        11.71
  SM17850                     0.01      0.01     28.61      0.01         0.01
  SM21952                     0.01      0.01      0.10      0.08         0.01
  SM21953                     0.01      7.82      0.01      7.82         0.01
  SM23276                     0.01      0.01      4.69      0.01         0.01
  SM9459                      0.01     14.19      0.01     17.65         0.01
  SM9755                      0.01      0.01      0.01     42.68         0.01
  SX0045                      0.01      4.38      0.01      0.04         0.01
  TS1003                      0.01      0.01      0.01      4.53         0.01
  UWP177                     27.22     27.23    135.59     29.63         0.01
  UWP193                     74.63    129.45    109.85      0.01         7.63
  UWP195                      0.01      0.01    129.45      0.01         0.01
  UWP197                    162.12    162.43    163.49     23.04        23.89
  UWP199                    163.40    163.49    163.97     27.61        24.73
  UWP201                    163.84    163.97    164.06     30.01        25.87
  UWP203                    164.73    164.73    164.99      3.71        62.46
  UWP205                    164.75    164.77    165.34     35.18         1.45
  UWP207                    166.08    166.08    166.69      0.01         0.56
  UWP209                      0.01      0.01    164.20      0.01         0.01
  UWP211                      0.01      0.01    165.44      0.01         0.01
  UWP213                      0.01      0.01    164.20      0.01         0.01
  
  
  ***************
  Pumping Summary
  ***************
  
  ---------------------------------------------------------------------------------------------------------
                                                  Min       Avg       Max     Total     Power    % Time Off
                        Percent   Number of      Flow      Flow      Flow    Volume     Usage    Pump Curve
  Pump                 Utilized   Start-Ups       CMS       CMS       CMS  10^6 ltr     Kw-hr    Low   High
  ---------------------------------------------------------------------------------------------------------
  PS102D                  29.54        1541      0.00      0.22      0.22    39.268   1621.43    0.0   92.6
  PS102S                   0.00           0      0.00      0.00      0.00     0.000      0.00    0.0    0.0
  PS102SS                  0.00           0      0.00      0.00      0.00     0.000      0.00    0.0    0.0
  PS103D                  28.93        1543      0.00      0.37      0.40    64.019   2853.75    0.0    2.8
  PS103S                   0.00           0      0.00      0.00      0.00     0.000      0.00    0.0    0.0
  PS104D                  43.78        1652      0.00      0.06      0.06    16.363   1031.92    0.0    0.0
  PS104S                   0.00           0      0.00      0.00      0.00     0.000      0.00    0.0    0.0
  PS105D                  11.50         632      0.00      0.01      0.07     0.711     62.20    0.0    0.1
  PS105S                   0.00           0      0.00      0.00      0.00     0.000      0.00    0.0    0.0
  PS108AD                 18.08         923      0.00      0.29      0.34    32.056   3139.25    0.0   10.6
  PS108AS                  0.00           0      0.00      0.00      0.00     0.000      0.00    0.0    0.0
  PS108D                  28.70         982      0.00      0.23      0.25    40.344   5020.17    0.0    3.5
  PS108S                   0.00           0      0.00      0.00      0.00     0.000      0.00    0.0    0.0
  PS110D                  19.03        1363      0.00      0.03      0.19     3.700    448.44    0.0    0.0
  PS110S                   0.00           0      0.00      0.00      0.00     0.000      0.00    0.0    0.0
  PS111D                  11.45         242      0.00      0.01      0.08     0.447     33.67    0.0    0.0
  PS111S                   0.00           0      0.00      0.00      0.00     0.000      0.00    0.0    0.0
  PS112D                  18.36         919      0.00      0.02      0.04     1.940    183.53    0.0    0.1
  PS112S                   0.00           0      0.00      0.00      0.00     0.000      0.00    0.0    0.0
  PS113D                  24.06        1641      0.00      0.02      0.02     2.459     12.88    0.0    0.0
  PS113S                   0.00           0      0.00      0.00      0.00     0.000      0.00    0.0    0.0
  PS114D                  13.58        1680      0.00      0.02      0.06     2.031    116.94    0.0    0.0
  PS114S                   0.00           0      0.00      0.00      0.00     0.000      0.00    0.0    0.0
  PS118LD                  8.21        1947      0.00      0.03      0.03     1.489     19.35    0.0  100.0
  PS118LS                  0.00           0      0.00      0.00      0.00     0.000      0.00    0.0    0.0
  PS119D                  12.30         995      0.00      0.02      0.06     1.541     92.82    0.0    0.0
  PS119S                   0.00           0      0.00      0.00      0.00     0.000      0.00    0.0    0.0
  PS122D                   5.22         190      0.00      0.00      0.01     0.150      4.26    0.0    0.6
  PS127D                  39.26        1196      0.00      0.00      0.00     0.973     33.26    0.0    0.0
  PS127S                   0.00           0      0.00      0.00      0.00     0.000      0.00    0.0    0.0
  PS129D                  16.41         911      0.00      0.09      0.12     8.934    455.07    0.0    0.6
  PS129S                   0.00           0      0.00      0.00      0.00     0.000      0.00    0.0    0.0
  PS130D                  17.02         787      0.00      0.07      0.14     7.177    371.02    0.0    2.4
  PS130S                   0.00           0      0.00      0.00      0.00     0.000      0.00    0.0    0.0
  PS131D                   3.76         171      0.00      0.03      0.04     0.680     11.30    0.0    2.7
  PS135D                  29.13         818      0.00      0.05      0.14     9.235    874.24    0.0    0.0
  PS135S                   0.00           0      0.00      0.00      0.00     0.000      0.00    0.0    0.0
  PS136D                  18.21         925      0.00      0.06      0.15     6.697    508.89    0.0    0.5
  PS136S                   0.00           0      0.00      0.00      0.00     0.000      0.00    0.0    0.0
  PS140D                   3.63         222      0.00      0.03      0.07     0.591     32.43    0.0    0.2
  PS140S                   0.00           0      0.00      0.00      0.00     0.000      0.00    0.0    0.0
  PS141D                  11.87         260      0.00      0.01      0.03     0.387     17.02    0.0    0.0
  PS141S                   0.00           0      0.00      0.00      0.00     0.000      0.00    0.0    0.0
  PS143D                   4.65        1363      0.00      0.44      0.44    12.466    246.48    0.0    0.0
  PS143S                   0.00           0      0.00      0.00      0.00     0.000      0.00    0.0    0.0
  PS143_OLD_1             21.23        5063      0.00      0.23      0.29    29.122    463.04    0.0    0.0
  PS143_OLD_2             21.23        5063      0.00      0.23      0.29    29.122    463.04    0.0    0.0
  PS144D                  30.12         890      0.00      0.03      0.04     5.618    132.92    0.0    0.0
  PS144S                   0.00           0      0.00      0.00      0.00     0.000      0.00    0.0    0.0
  PS145D                  17.78         562      0.00      0.10      0.15    10.814   1049.39    0.0    0.3
  PS145S                   0.00           0      0.00      0.00      0.00     0.000      0.00    0.0    0.0
  PS149D                  16.51        1038      0.00      0.04      0.06     4.112    511.15    0.0    0.1
  PS149S                   0.00           0      0.00      0.00      0.00     0.000      0.00    0.0    0.0
  PS150D                  23.73         421      0.00      0.01      0.02     1.032     15.04    0.0    0.0
  PS150S                   0.00           0      0.00      0.00      0.00     0.000      0.00    0.0    0.0
  PS151D                  20.47         536      0.00      0.01      0.03     1.151     30.65    0.0    0.0
  PS151S                   0.00           0      0.00      0.00      0.00     0.000      0.00    0.0    0.0
  PS153D                  26.07         910      0.00      0.14      0.26    21.468   1547.27    0.0    0.1
  PS153S                   0.00           0      0.00      0.00      0.00     0.000      0.00    0.0    0.0
  PS155D                  28.97        2362      0.00      0.03      0.06     5.086    229.75    0.0    0.0
  PS155S                   0.00           0      0.00      0.00      0.00     0.000      0.00    0.0    0.0
  PS158D                  17.32         415      0.00      0.01      0.04     1.048     88.63    0.0    0.0
  PS158S                   0.00           0      0.00      0.00      0.00     0.000      0.00    0.0    0.0
  PS162D                  14.41         466      0.00      0.05      0.05     4.628    148.64    0.0    0.0
  PS162S                   0.00           0      0.00      0.00      0.00     0.000      0.00    0.0    0.0
  PS164D                   5.00          84      0.00      0.01      0.02     0.199      3.56    0.0    0.0
  PS164S                   0.00           0      0.00      0.00      0.00     0.000      0.00    0.0    0.0
  PS165D                  23.39        1571      0.00      0.30      0.30    42.176   1582.51    0.0   83.9
  PS165S                   0.00           0      0.00      0.00      0.00     0.000      0.00    0.0    0.0
  PS166D                  16.70        1044      0.00      0.02      0.02     1.646    132.96    0.0    0.1
  PS166S                   0.00           0      0.00      0.00      0.00     0.000      0.00    0.0    0.0
  PS167D                  19.44        1048      0.00      0.04      0.04     5.148    271.17    0.0    0.0
  PS167S                   0.00           0      0.00      0.00      0.00     0.000      0.00    0.0    0.0
  PS169D                   4.97         268      0.00      0.02      0.04     0.615     18.41    0.0    4.0
  PS169S                   0.00           0      0.00      0.00      0.00     0.000      0.00    0.0    0.0
  PS170D                  15.72         877      0.00      0.08      0.09     7.862   1151.90    0.0   84.3
  PS170S                   0.00           0      0.00      0.00      0.00     0.000      0.00    0.0    0.0
  PS174D                  12.46        1293      0.00      0.17      0.22    12.600   1707.72    0.0    0.5
  PS174S                   0.00           0      0.00      0.00      0.00     0.000      0.00    0.0    0.0
  PS175D                  17.65         857      0.00      0.23      0.32    24.425   2480.88    0.0    0.3
  PS175S                   0.00           0      0.00      0.00      0.00     0.000      0.00    0.0    0.0
  PS179D                  14.88         152      0.00      0.08      0.15     7.422    528.96    0.0    0.1
  PS179S                   0.00           0      0.00      0.00      0.00     0.000      0.00    0.0    0.0
  PS180D                  27.41         988      0.00      0.13      0.26    20.812   3204.41    0.0    0.2
  PS180S                   0.00           0      0.00      0.00      0.00     0.000      0.00    0.0    0.0
  PS181D                  23.08        1757      0.00      0.22      0.22    30.281   4295.01    0.0    1.0
  PS181S                   0.00           0      0.00      0.00      0.00     0.000      0.00    0.0    0.0
  PSFD                    15.57         695      0.00      0.02      0.03     1.670     65.31    0.0    3.2
  PSFS                     0.00           0      0.00      0.00      0.00     0.000      0.00    0.0    0.0
  PSHD                     9.99          34      0.00      0.02      0.04     1.389    102.08    0.0    0.7
  PSHS                     0.00           0      0.00      0.00      0.00     0.000      0.00    0.0    0.0
  

  Analysis begun on:  Wed Jun 24 09:10:50 2026
  Analysis ended on:  Wed Jun 24 09:21:33 2026
  Total elapsed time: 00:10:43