
  EPA STORM WATER MANAGEMENT MODEL - VERSION 5.2 (Build 5.2.4)
  ------------------------------------------------------------

  THE PONDS 
  Green-Ampt Silty Sand 
  Volume Based Heytographs 
  WARNING 04: minimum elevation drop used for Conduit P8
  WARNING 02: maximum depth increased for Node CrawfordSlough
  WARNING 02: maximum depth increased for Node SeepageSpring
  
  ****************
  Analysis Options
  ****************
  Flow Units ............... LPS
  Process Models:
    Rainfall/Runoff ........ YES
    RDII ................... NO
    Snowmelt ............... NO
    Groundwater ............ NO
    Flow Routing ........... YES
    Ponding Allowed ........ NO
    Water Quality .......... NO
  Infiltration Method ...... GREEN_AMPT
  Flow Routing Method ...... DYNWAVE
  Surcharge Method ......... EXTRAN
  Starting Date ............ 04/28/2010 00:00:00
  Ending Date .............. 04/28/2010 05:00:00
  Antecedent Dry Days ...... 0.0
  Report Time Step ......... 00:00:10
  Wet Time Step ............ 00:05:00
  Dry Time Step ............ 00:05:00
  Routing Time Step ........ 10.00 sec
  Variable Time Step ....... YES
  Maximum Trials ........... 8
  Number of Threads ........ 1
  Head Tolerance ........... 0.001500 m
  
  
  **************************        Volume         Depth
  Runoff Quantity Continuity     hectare-m            mm
  **************************     ---------       -------
  Total Precipitation ......         1.683        11.300
  Evaporation Loss .........         0.000         0.000
  Infiltration Loss ........         0.984         6.611
  Surface Runoff ...........         0.621         4.170
  Final Storage ............         0.087         0.587
  Continuity Error (%) .....        -0.605
  
  
  **************************        Volume        Volume
  Flow Routing Continuity        hectare-m      10^6 ltr
  **************************     ---------     ---------
  Dry Weather Inflow .......         0.016         0.162
  Wet Weather Inflow .......         0.621         6.207
  Groundwater Inflow .......         0.000         0.000
  RDII Inflow ..............         0.000         0.000
  External Inflow ..........         0.000         0.000
  External Outflow .........         0.273         2.726
  Flooding Loss ............         0.000         0.000
  Evaporation Loss .........         0.000         0.000
  Exfiltration Loss ........         0.000         0.000
  Initial Stored Volume ....         0.000         0.000
  Final Stored Volume ......         0.365         3.647
  Continuity Error (%) .....        -0.061
  
  
  *************************
  Highest Continuity Errors
  *************************
  Node J3 (1.61%)
  Node SeepageSpring (1.46%)
  
  
  ***************************
  Time-Step Critical Elements
  ***************************
  Link P3 (45.49%)
  
  
  ********************************
  Highest Flow Instability Indexes
  ********************************
  All links are stable.
  
  
  *********************************
  Most Frequent Nonconverging Nodes
  *********************************
  Node J3 (0.08%)
  Node Out1 (0.08%)
  Node Out2 (0.08%)
  
  
  *************************
  Routing Time Step Summary
  *************************
  Minimum Time Step           :     1.69 sec
  Average Time Step           :     7.09 sec
  Maximum Time Step           :    10.00 sec
  % of Time in Steady State   :     0.00
  Average Iterations per Step :     2.13
  % of Steps Not Converging   :     0.08
  Time Step Frequencies       :
     10.000 -  5.493 sec      :    59.66 %
      5.493 -  3.017 sec      :    23.11 %
      3.017 -  1.657 sec      :    17.23 %
      1.657 -  0.910 sec      :     0.00 %
      0.910 -  0.500 sec      :     0.00 %
  
  
  ***************************
  Subcatchment Runoff Summary
  ***************************
  
  ------------------------------------------------------------------------------------------------------------------------------
                            Total      Total      Total      Total     Imperv       Perv      Total       Total     Peak  Runoff
                           Precip      Runon       Evap      Infil     Runoff     Runoff     Runoff      Runoff   Runoff   Coeff
  Subcatchment                 mm         mm         mm         mm         mm         mm         mm    10^6 ltr      LPS
  ------------------------------------------------------------------------------------------------------------------------------
  1                         11.30       0.00       0.00       6.78       3.97       0.00       3.97        0.04    32.71   0.352
  2                         11.30       0.00       0.00       6.78       3.98       0.00       3.98        0.08    59.19   0.352
  3                         11.30       0.00       0.00       6.78       3.97       0.00       3.97        0.08    58.98   0.352
  4                         11.30       0.00       0.00       6.78       3.97       0.00       3.97        0.12    88.91   0.352
  5                         11.30       0.00       0.00       6.78       3.99       0.00       3.99        0.11    84.37   0.353
  6                         11.30       0.00       0.00       6.78       3.99       0.00       3.99        0.08    62.01   0.353
  7                         11.30       0.00       0.00       6.78       3.98       0.00       3.98        0.15   117.53   0.352
  8                         11.30       0.00       0.00       5.65       4.98       0.00       4.98        0.09    72.36   0.441
  9                         11.30       0.00       0.00       6.78       3.99       0.00       3.99        0.03    22.45   0.353
  10                        11.30       0.00       0.00       6.78       3.99       0.00       3.99        0.17   126.25   0.353
  11                        11.30       0.00       0.00       6.78       3.99       0.00       3.99        0.14   102.65   0.354
  12                        11.30       0.00       0.00       6.78       3.99       0.00       3.99        0.30   227.33   0.353
  13                        11.30       0.00       0.00       6.78       3.98       0.00       3.98        0.15   118.79   0.352
  14                        11.30       0.00       0.00       7.35       3.48       0.00       3.48        0.12    94.46   0.308
  15                        11.30       0.00       0.00       7.35       3.49       0.00       3.49        0.22   167.87   0.309
  16                        11.30       0.00       0.00       5.65       4.97       0.00       4.97        0.10    78.24   0.440
  17                        11.30       0.00       0.00       6.78       3.99       0.00       3.99        0.14   108.81   0.353
  18                        11.30       0.00       0.00       8.47       2.48       0.00       2.48        0.07    50.77   0.219
  20                        11.30       0.00       0.00       6.78       3.99       0.00       3.99        0.10    77.49   0.353
  21                        11.30       0.00       0.00       6.78       4.00       0.00       4.00        0.06    45.11   0.354
  22                        11.30       0.00       0.00       6.78       3.99       0.00       3.99        0.12    89.92   0.353
  23                        11.30       0.00       0.00       6.78       4.00       0.00       4.00        0.06    44.69   0.354
  24                        11.30       0.00       0.00       6.78       3.95       0.00       3.95        0.04    30.73   0.350
  28                        11.30       0.00       0.00       8.48       2.48       0.00       2.48        0.05    37.77   0.219
  29                        11.30       0.00       0.00       7.35       3.49       0.00       3.49        0.20   155.56   0.309
  30                        11.30       0.00       0.00       7.46       3.38       0.00       3.38        0.15   118.77   0.300
  31                        11.30       0.00       0.00       7.46       3.39       0.00       3.39        0.16   119.32   0.300
  32                        11.30       0.00       0.00       7.46       3.39       0.00       3.39        0.22   165.47   0.300
  33                        11.30       0.00       0.00       6.78       3.99       0.00       3.99        0.08    59.73   0.353
  34                        11.30       0.00       0.00       6.78       3.99       0.00       3.99        0.17   132.80   0.353
  35                        11.30       0.00       0.00       6.78       3.98       0.00       3.98        0.09    67.80   0.352
  36                        11.30       0.00       0.00       6.78       3.95       0.00       3.95        0.08    60.98   0.350
  37                        11.30       0.00       0.00       8.47       2.47       0.00       2.47        0.04    30.23   0.219
  38                        11.30       0.00       0.00       7.34       3.49       0.00       3.49        0.15   118.65   0.309
  39                        11.30       0.00       0.00       4.52       5.99       0.00       5.99        0.29   214.20   0.530
  40                        11.30       0.00       0.00       3.39       6.98       0.00       6.98        0.23   165.92   0.618
  41                        11.30       0.00       0.00       1.70       8.43       0.00       8.43        0.23   143.88   0.746
  42                        11.30       0.00       0.00       8.47       2.50       0.00       2.50        0.06    43.26   0.221
  43                        11.30       0.00       0.00       5.65       4.99       0.00       4.99        0.08    64.11   0.442
  44                        11.30       0.00       0.00       6.78       4.00       0.00       4.00        0.08    60.10   0.354
  45                        11.30       0.00       0.00       7.91       2.99       0.00       2.99        0.18   134.44   0.265
  46                        11.30       0.00       0.00       5.65       4.99       0.00       4.99        0.08    59.72   0.442
  47                        11.30      18.85       0.00      18.09      11.64       0.00      11.64        0.04    29.07   0.386
  48                        11.30       0.00       0.00       6.78       3.99       0.00       3.99        0.01     8.22   0.353
  49                        11.30       0.00       0.00       6.78       3.99       0.00       3.99        0.03    20.99   0.353
  50                        11.30       0.00       0.00       6.78       3.99       0.00       3.99        0.02    15.36   0.353
  51                        11.30       0.00       0.00       6.78       3.97       0.00       3.97        0.05    33.86   0.352
  52                        11.30       5.29       0.00       9.95       6.09       0.00       6.09        0.06    41.88   0.367
  53                        11.30       0.00       0.00       6.78       3.96       0.00       3.96        0.03    21.96   0.351
  54                        11.30       0.00       0.00       6.78       3.97       0.00       3.97        0.03    20.08   0.351
  SC1                       11.30       0.00       0.00       4.41       6.96       0.00       6.96        0.48   322.88   0.616
  SC4                       11.30       0.00       0.00       5.54       5.08       0.00       5.08        0.08    61.25   0.450
  SC7                       11.30       0.00       0.00       2.26       7.99       0.00       7.99        0.08    59.92   0.707
  SC8                       11.30       0.00       0.00       2.26       7.99       0.00       7.99        0.07    55.51   0.707
  SC9                       11.30       0.00       0.00       2.26       7.89       0.00       7.89        0.01     9.38   0.698
  SC10                      11.30       0.00       0.00       2.26       7.88       0.00       7.88        0.01     9.14   0.697
  SC11                      11.30       0.00       0.00       2.26       7.95       0.00       7.95        0.03    26.35   0.704
  SC12                      11.30       0.00       0.00       2.26       7.99       0.00       7.99        0.07    53.53   0.707
  SC16                      11.30       0.00       0.00       8.47       2.48       0.00       2.48        0.04    32.74   0.220
  
  
  ******************
  Node Depth Summary
  ******************
  
  ---------------------------------------------------------------------------------
                                 Average  Maximum  Maximum  Time of Max    Reported
                                   Depth    Depth      HGL   Occurrence   Max Depth
  Node                 Type       Meters   Meters   Meters  days hr:min      Meters
  ---------------------------------------------------------------------------------
  J10                  JUNCTION     0.04     0.13   570.13     0  00:20        0.13
  J11                  JUNCTION     0.02     0.08   575.08     0  00:20        0.08
  J12                  JUNCTION     0.03     0.12   563.12     0  00:15        0.12
  J13                  JUNCTION     0.05     0.19   552.19     0  00:20        0.19
  J14                  JUNCTION     0.01     0.05   553.05     0  00:20        0.05
  J15                  JUNCTION     0.10     0.34   525.34     0  00:20        0.34
  J16                  JUNCTION     0.08     0.23   504.23     0  00:21        0.23
  J17                  JUNCTION     0.11     0.34   491.34     0  00:20        0.34
  J19                  JUNCTION     0.02     0.08   550.08     0  00:20        0.08
  J2                   JUNCTION     0.04     0.15   575.15     0  00:20        0.15
  J20                  JUNCTION     0.03     0.13   548.13     0  00:20        0.13
  J21                  JUNCTION     0.04     0.13   540.13     0  00:20        0.13
  J22                  JUNCTION     0.08     0.18   528.18     0  00:20        0.18
  J23                  JUNCTION     0.05     0.18   530.18     0  00:20        0.18
  J24                  JUNCTION     0.07     0.25   516.35     0  00:20        0.25
  J25                  JUNCTION     0.04     0.11   540.11     0  00:20        0.11
  J26                  JUNCTION     0.10     0.36   519.36     0  00:21        0.36
  J27                  JUNCTION     0.07     0.23   523.23     0  00:20        0.23
  J28                  JUNCTION     0.01     0.05   519.75     0  00:20        0.05
  J29                  JUNCTION     0.05     0.08   521.08     0  00:20        0.08
  J3                   JUNCTION     0.30     1.20   573.50     0  00:06        0.75
  J30                  JUNCTION     0.08     0.20   518.00     0  00:20        0.20
  J31                  JUNCTION     0.12     0.41   514.31     0  00:21        0.41
  J32                  JUNCTION     0.02     0.07   514.07     0  00:20        0.07
  J33                  JUNCTION     0.03     0.13   509.73     0  00:20        0.13
  J34                  JUNCTION     0.09     0.25   507.95     0  00:21        0.25
  J35                  JUNCTION     0.12     0.38   500.18     0  00:20        0.38
  J37                  JUNCTION     0.07     0.25   510.25     0  00:20        0.25
  J38                  JUNCTION     0.07     0.24   512.24     0  00:20        0.24
  J39                  JUNCTION     0.03     0.09   498.09     0  00:20        0.09
  J4                   JUNCTION     0.02     0.09   588.09     0  00:20        0.09
  J40                  JUNCTION     0.08     0.27   486.27     0  00:20        0.27
  J41                  JUNCTION     0.05     0.16   500.16     0  00:20        0.16
  J42                  JUNCTION     0.05     0.18   645.18     0  00:20        0.18
  J43                  JUNCTION     0.05     0.17   630.17     0  00:20        0.17
  J44                  JUNCTION     0.05     0.19   626.19     0  00:20        0.19
  J45                  JUNCTION     0.04     0.15   638.15     0  00:20        0.14
  J46                  JUNCTION     0.07     0.27   607.27     0  00:20        0.27
  J47                  JUNCTION     0.03     0.12   625.12     0  00:20        0.12
  J48                  JUNCTION     0.07     0.25   595.25     0  00:20        0.25
  J49                  JUNCTION     0.07     0.27   580.27     0  00:20        0.27
  J5                   JUNCTION     0.07     0.26   570.26     0  00:20        0.26
  J50                  JUNCTION     0.09     0.36   565.36     0  00:20        0.36
  J51                  JUNCTION     0.02     0.08   603.08     0  00:20        0.08
  J52                  JUNCTION     0.08     0.31   560.31     0  00:21        0.31
  J53                  JUNCTION     0.03     0.10   570.10     0  00:20        0.10
  J54                  JUNCTION     0.07     0.34   545.34     0  00:17        0.34
  J55                  JUNCTION     0.04     0.15   577.25     0  00:20        0.15
  J56                  JUNCTION     0.05     0.18   541.23     0  00:20        0.18
  J57                  JUNCTION     0.09     0.19   524.08     0  00:20        0.19
  J58                  JUNCTION     0.02     0.02   548.02     0  02:46        0.02
  J59                  JUNCTION     0.03     0.03   538.03     0  01:09        0.03
  J6                   JUNCTION     0.02     0.06   589.06     0  00:20        0.06
  J60                  JUNCTION     0.04     0.04   535.04     0  01:11        0.04
  J61                  JUNCTION     0.12     0.39   496.79     0  00:21        0.39
  J62                  JUNCTION     0.09     0.20   515.50     0  00:20        0.20
  J63                  JUNCTION     0.10     0.23   478.43     0  00:21        0.23
  J64                  JUNCTION     0.12     0.28   437.72     0  00:21        0.28
  J65                  JUNCTION     0.10     0.22   491.14     0  00:21        0.22
  J66                  JUNCTION     0.11     0.24   495.43     0  00:20        0.24
  J67                  JUNCTION     0.11     0.25   498.87     0  00:20        0.25
  J68                  JUNCTION     0.11     0.25   454.51     0  00:21        0.25
  J7                   JUNCTION     0.06     0.24   571.24     0  00:20        0.24
  J70                  JUNCTION     0.10     0.33   476.33     0  00:20        0.33
  J74                  JUNCTION     0.09     0.25   512.25     0  00:21        0.25
  J75                  JUNCTION     0.16     0.55   483.45     0  00:21        0.55
  J8                   JUNCTION     0.06     0.23   565.23     0  00:20        0.23
  J9                   JUNCTION     0.06     0.26   553.26     0  00:18        0.26
  Out1                 OUTFALL      0.00     0.00   423.00     0  00:00        0.00
  Out2                 OUTFALL      0.12     0.28   427.52     0  00:21        0.28
  CrawfordSlough       STORAGE      0.03     0.05   551.75     0  02:45        0.05
  SeepageSpring        STORAGE      0.07     0.13   551.83     0  00:50        0.13
  HillSpring           STORAGE      0.07     0.09   540.94     0  01:09        0.09
  JackSmithLake        STORAGE      0.02     0.02   572.02     0  05:00        0.02
  SouthCrestPond       STORAGE      0.37     0.56   539.56     0  01:03        0.56
  MairPond             STORAGE      0.25     0.31   538.21     0  01:11        0.31
  R6                   STORAGE      0.34     0.45   426.45     0  01:12        0.45
  
  
  *******************
  Node Inflow Summary
  *******************
  
  -------------------------------------------------------------------------------------------------
                                  Maximum  Maximum                  Lateral       Total        Flow
                                  Lateral    Total  Time of Max      Inflow      Inflow     Balance
                                   Inflow   Inflow   Occurrence      Volume      Volume       Error
  Node                 Type           LPS      LPS  days hr:min    10^6 ltr    10^6 ltr     Percent
  -------------------------------------------------------------------------------------------------
  J10                  JUNCTION    126.25   126.25     0  00:20       0.165       0.165      -0.117
  J11                  JUNCTION     62.01    62.01     0  00:20      0.0811      0.0811      -0.034
  J12                  JUNCTION     94.46    94.46     0  00:20       0.123       0.123      -0.239
  J13                  JUNCTION    167.87   167.87     0  00:20       0.219       0.219      -0.177
  J14                  JUNCTION     22.45    22.45     0  00:20      0.0294      0.0294      -0.422
  J15                  JUNCTION    227.33   458.13     0  00:20       0.298       0.773       0.312
  J16                  JUNCTION      0.00   433.29     0  00:20           0       0.771       0.290
  J17                  JUNCTION    134.44  1159.61     0  00:20       0.185        1.86       0.019
  J19                  JUNCTION     45.11    45.11     0  00:20      0.0597      0.0597      -0.039
  J2                   JUNCTION    118.79   118.79     0  00:20       0.154       0.154      -0.066
  J20                  JUNCTION     77.49    77.49     0  00:20       0.101       0.101      -0.072
  J21                  JUNCTION      0.00   121.69     0  00:20           0       0.161       0.063
  J22                  JUNCTION    102.65   108.60     0  00:20       0.135        0.31       0.191
  J23                  JUNCTION     30.73   150.14     0  00:20      0.0396         0.2      -0.001
  J24                  JUNCTION     60.05   207.30     0  00:20      0.0788       0.279      -0.004
  J25                  JUNCTION    108.81   108.88     0  00:20       0.142       0.176       0.054
  J26                  JUNCTION      0.00   204.15     0  00:20           0       0.304       0.166
  J27                  JUNCTION     89.92   197.72     0  00:20       0.118       0.293       0.068
  J28                  JUNCTION      8.22     8.22     0  00:20      0.0108      0.0108      -0.139
  J29                  JUNCTION     29.07    38.63     0  00:20      0.0406       0.239       0.188
  J3                   JUNCTION      0.00   118.54     0  00:20           0       0.155       1.631
  J30                  JUNCTION     20.99   254.54     0  00:20      0.0273       0.569       0.156
  J31                  JUNCTION     33.86   491.64     0  00:20      0.0504       0.898       0.138
  J32                  JUNCTION     41.88    41.88     0  00:20      0.0563      0.0563       0.007
  J33                  JUNCTION     21.96    63.65     0  00:20      0.0284      0.0847      -0.051
  J34                  JUNCTION     20.08   564.00     0  00:20       0.026        1.01       0.063
  J35                  JUNCTION      0.00   929.61     0  00:20           0        1.52       0.103
  J37                  JUNCTION    214.20   374.94     0  00:20       0.289       0.515      -0.024
  J38                  JUNCTION    165.92   165.92     0  00:20       0.226       0.226      -0.004
  J39                  JUNCTION     64.11    64.11     0  00:20      0.0843      0.0843      -0.071
  J4                   JUNCTION     59.19    59.19     0  00:20      0.0768      0.0768      -0.086
  J40                  JUNCTION     43.26   248.16     0  00:20      0.0567       0.369       0.019
  J41                  JUNCTION    143.88   143.88     0  00:20       0.228       0.228       0.001
  J42                  JUNCTION    165.47   165.47     0  00:20       0.215       0.215      -0.046
  J43                  JUNCTION      0.00   164.37     0  00:20           0       0.215       0.037
  J44                  JUNCTION      0.00   281.70     0  00:20           0       0.371       0.023
  J45                  JUNCTION    119.32   119.32     0  00:20       0.156       0.156      -0.049
  J46                  JUNCTION      0.00   397.08     0  00:20           0       0.526       0.045
  J47                  JUNCTION    118.77   118.77     0  00:20       0.154       0.154      -0.060
  J48                  JUNCTION    132.80   522.44     0  00:20       0.173       0.698      -0.027
  J49                  JUNCTION      0.00   578.51     0  00:20           0       0.776       0.029
  J5                   JUNCTION     58.98   237.16     0  00:20      0.0765       0.311       0.004
  J50                  JUNCTION     67.80   640.12     0  00:20      0.0882       0.864       0.004
  J51                  JUNCTION     59.73    59.73     0  00:20      0.0778      0.0778      -0.121
  J52                  JUNCTION      0.00   703.08     0  00:21           0       0.943       0.038
  J53                  JUNCTION     60.98    60.98     0  00:20      0.0785      0.0785      -0.158
  J54                  JUNCTION      0.00   689.08     0  00:21           0       0.943      -0.133
  J55                  JUNCTION    155.56   155.56     0  00:20       0.204       0.204      -0.049
  J56                  JUNCTION    118.65   270.31     0  00:20       0.155       0.359      -0.094
  J57                  JUNCTION      0.00   294.14     0  00:20           0        1.09       0.199
  J58                  JUNCTION      0.00     2.34     0  02:45           0       0.034       0.800
  J59                  JUNCTION      9.00    11.38     0  01:09       0.162       0.199       0.087
  J6                   JUNCTION     32.71    32.71     0  00:20      0.0424      0.0424      -0.049
  J60                  JUNCTION      0.00    10.92     0  01:11           0       0.176       0.178
  J61                  JUNCTION    119.83  1037.28     0  00:20       0.159        1.68       0.034
  J62                  JUNCTION     61.25   348.94     0  00:20      0.0797        1.17       0.109
  J63                  JUNCTION     26.35   439.33     0  00:20      0.0342         1.3       0.161
  J64                  JUNCTION     59.92   533.86     0  00:21      0.0799        1.45       0.177
  J65                  JUNCTION      9.14   416.26     0  00:20      0.0117        1.27       0.067
  J66                  JUNCTION      9.38   407.74     0  00:20      0.0121        1.26       0.046
  J67                  JUNCTION     55.51   399.81     0  00:20      0.0733        1.24       0.108
  J68                  JUNCTION     53.53   484.33     0  00:21      0.0703        1.37       0.177
  J7                   JUNCTION     88.91   121.38     0  00:20       0.115       0.158      -0.007
  J70                  JUNCTION      0.00  1802.72     0  00:21           0           3      -0.038
  J74                  JUNCTION      0.00   486.90     0  00:21           0       0.897       0.056
  J75                  JUNCTION      0.00  1400.25     0  00:20           0        2.23       0.069
  J8                   JUNCTION     84.37   317.40     0  00:20       0.111       0.422       0.090
  J9                   JUNCTION    117.53   490.39     0  00:20       0.153       0.655      -0.150
  Out1                 OUTFALL       0.00    84.61     0  01:12           0        1.28       0.000
  Out2                 OUTFALL       0.00   531.96     0  00:21           0        1.44       0.000
  CrawfordSlough       STORAGE      78.24    82.33     0  00:20       0.102       0.195       0.848
  SeepageSpring        STORAGE       0.00    94.89     0  00:20           0       0.123       1.483
  HillSpring           STORAGE       0.00   167.76     0  00:20           0       0.219       0.440
  JackSmithLake        STORAGE     322.88   441.32     0  00:20       0.483       0.635      -0.157
  SouthCrestPond       STORAGE      30.23   752.01     0  00:20       0.039       0.983       0.247
  MairPond             STORAGE      72.36   592.17     0  00:20      0.0942        0.78       0.867
  R6                   STORAGE      32.74  1849.08     0  00:21      0.0425        3.04       0.469
  
  
  **********************
  Node Surcharge Summary
  **********************
  
  Surcharging occurs when water rises above the top of the highest conduit.
  ---------------------------------------------------------------------
                                               Max. Height   Min. Depth
                                   Hours       Above Crown    Below Rim
  Node                 Type      Surcharged         Meters       Meters
  ---------------------------------------------------------------------
  J3                   JUNCTION        0.72          0.900        0.000
  SouthCrestPond       STORAGE         1.77          0.108        0.442
  
  
  *********************
  Node Flooding Summary
  *********************
  
  Flooding refers to all water that overflows a node, whether it ponds or not.
  --------------------------------------------------------------------------
                                                             Total   Maximum
                                 Maximum   Time of Max       Flood    Ponded
                        Hours       Rate    Occurrence      Volume     Depth
  Node                 Flooded       LPS   days hr:min    10^6 ltr    Meters
  --------------------------------------------------------------------------
  J3                      0.01     37.74      0  00:06       0.000     0.000
  
  
  **********************
  Storage Volume Summary
  **********************
  
  ------------------------------------------------------------------------------------------------
                         Average    Avg   Evap  Exfil     Maximum    Max    Time of Max    Maximum
                          Volume   Pcnt   Pcnt   Pcnt      Volume   Pcnt     Occurrence    Outflow
  Storage Unit           1000 mł   Full   Loss   Loss     1000 mł   Full    days hr:min        LPS
  ------------------------------------------------------------------------------------------------
  CrawfordSlough           0.122    3.3    0.0    0.0       0.172    4.7       0  02:45       2.34
  SeepageSpring            0.044    7.1    0.0    0.0       0.080   12.9       0  00:50      19.94
  HillSpring               0.163    9.4    0.0    0.0       0.211   12.2       0  01:09       2.38
  JackSmithLake            0.519    1.6    0.0    0.0       0.635    2.0       0  05:00      52.89
  SouthCrestPond           0.484   24.6    0.0    0.0       0.820   41.6       0  01:03      54.21
  MairPond                 0.549   13.9    0.0    0.0       0.733   18.5       0  01:11      10.92
  R6                       1.706   23.9    0.0    0.0       2.416   33.9       0  01:12      84.61
  
  
  ***********************
  Outfall Loading Summary
  ***********************
  
  -----------------------------------------------------------
                         Flow       Avg       Max       Total
                         Freq      Flow      Flow      Volume
  Outfall Node           Pcnt       LPS       LPS    10^6 ltr
  -----------------------------------------------------------
  Out1                  97.40     65.76     84.61       1.283
  Out2                  99.76    136.05    531.96       1.443
  -----------------------------------------------------------
  System                98.58    201.82    561.32       2.726
  
  
  ********************
  Link Flow Summary
  ********************
  
  -----------------------------------------------------------------------------
                                 Maximum  Time of Max   Maximum    Max/    Max/
                                  |Flow|   Occurrence   |Veloc|    Full    Full
  Link                 Type          LPS  days hr:min     m/sec    Flow   Depth
  -----------------------------------------------------------------------------
  P1                   CONDUIT   1159.21     0  00:20      6.28    0.74    0.82
  P2                   CONDUIT    118.54     0  00:20      2.08    0.51    0.75
  P3                   CONDUIT    118.59     0  00:20      1.92    0.73    0.82
  P4                   CONDUIT   1372.64     0  00:21      6.33    0.86    0.73
  P5                   CONDUIT    265.60     0  00:20      4.96    0.47    0.49
  P6                   CONDUIT     44.81     0  00:20      2.26    0.22    0.42
  P7                   CONDUIT     76.88     0  00:20      3.00    0.51    0.52
  P8                   CONDUIT     19.94     0  00:52      0.37    0.08    0.08
  P9                   CONDUIT    292.89     0  00:21      5.17    0.50    0.51
  P10                  CONDUIT      2.34     0  02:46      1.24    0.01    0.19
  P11                  CONDUIT    120.35     0  00:20      3.66    0.55    0.64
  P12                  CONDUIT     11.38     0  01:09      3.63    0.04    0.23
  P13                  CONDUIT     10.92     0  01:11      1.74    0.06    0.42
  P14                  CONDUIT    141.95     0  00:20      3.29    0.75    0.82
  P15                  CONDUIT     63.83     0  00:20      1.92    0.27    0.68
  P16                  CONDUIT    927.13     0  00:20      5.48    0.86    0.73
  P17                  CONDUIT   1035.09     0  00:20      6.49    0.82    0.69
  P18                  CONDUIT    531.96     0  00:21      5.04    0.72    0.63
  P19                  CONDUIT    415.86     0  00:21      5.95    0.66    0.61
  P20                  CONDUIT    408.01     0  00:20      5.67    0.71    0.62
  P21                  CONDUIT    399.15     0  00:20      5.17    0.77    0.66
  P22                  CONDUIT    348.32     0  00:20      5.08    0.54    0.60
  P23                  CONDUIT    482.15     0  00:21      5.69    0.80    0.72
  P24                  CONDUIT    437.56     0  00:21      5.78    0.70    0.65
  P25                  CONDUIT    241.36     0  00:20      2.38    0.89    0.87
  P26                  CONDUIT   1821.95     0  00:21     17.16    0.42    0.47
  P27                  CONDUIT    486.78     0  00:21      5.40    0.58    0.55
  P52                  CONDUIT    164.37     0  00:20      4.47    0.85    0.70
  P53                  CONDUIT    163.54     0  00:20      3.62    0.63    0.61
  P54                  CONDUIT    118.59     0  00:20      3.35    0.64    0.68
  P55                  CONDUIT    118.40     0  00:20      3.13    0.47    0.74
  P56                  CONDUIT    392.84     0  00:20      4.78    0.85    0.70
  P57                  CONDUIT    280.06     0  00:20      4.77    0.75    0.77
  P58                  CONDUIT     59.37     0  00:20      1.87    0.24    0.67
  P59                  CONDUIT    519.76     0  00:20      6.31    0.80    0.70
  P60                  CONDUIT    576.28     0  00:20      5.88    0.87    0.85
  P61                  CONDUIT    647.47     0  00:21      5.22    0.89    0.73
  P62                  CONDUIT     60.69     0  00:20      1.83    0.35    0.70
  P63                  CONDUIT    689.08     0  00:21      6.96    0.71    0.67
  P64                  CONDUIT    723.39     0  00:20      8.38    0.55    0.65
  P65                  CONDUIT    196.01     0  00:20      2.95    0.95    0.89
  P66                  CONDUIT    196.29     0  00:20      2.29    0.95    0.76
  P67                  CONDUIT      8.17     0  00:20      0.43    0.09    0.60
  P68                  CONDUIT     38.23     0  00:20      2.27    0.24    0.57
  P69                  CONDUIT    253.78     0  00:20      2.78    0.57    0.77
  P70                  CONDUIT    205.45     0  00:20      2.09    0.78    0.83
  P71                  CONDUIT    486.90     0  00:21      3.97    0.84    0.73
  P72                  CONDUIT     41.77     0  00:20      2.28    0.18    0.40
  P73                  CONDUIT     63.15     0  00:20      1.63    0.52    0.75
  P74                  CONDUIT    162.16     0  00:20      2.14    0.73    0.65
  P75                  CONDUIT    368.99     0  00:20      3.78    0.77    0.83
  P79                  CONDUIT    563.72     0  00:21      4.80    0.60    0.70
  P83                  CONDUIT    500.10     0  00:20      8.68    0.58    0.52
  P84                  CONDUIT     22.37     0  00:20      3.23    0.07    0.56
  P85                  CONDUIT    107.05     0  00:20      2.39    0.86    0.86
  P86                  CONDUIT    148.82     0  00:20      3.29    0.89    0.87
  P87                  CONDUIT    433.29     0  00:20      4.95    0.97    0.76
  P88                  CONDUIT    430.48     0  00:21      4.95    0.69    0.75
  P89                  CONDUIT    124.56     0  00:20      3.09    0.55    0.76
  P90                  CONDUIT     61.72     0  00:20      1.79    0.22    0.66
  P91                  CONDUIT    313.71     0  00:20      4.44    0.68    0.64
  P92                  CONDUIT     32.51     0  00:20      1.11    0.14    0.60
  P93                  CONDUIT     58.87     0  00:20      1.76    0.27    0.68
  P94                  CONDUIT    119.65     0  00:20      1.93    0.96    0.82
  P95                  CONDUIT    234.21     0  00:20      3.11    0.78    0.65
  P96                  CONDUIT     94.89     0  00:20      6.42    0.21    0.29
  P97                  CONDUIT    167.76     0  00:20      6.98    0.42    0.38
  P98                  CONDUIT    108.01     0  00:20      3.04    0.39    0.68
  P99                  CONDUIT    152.32     0  00:20      3.81    0.50    0.55
  1                    ORIFICE     84.61     0  01:12                      1.00
  2                    ORIFICE     54.21     0  01:03                      1.00
  3                    ORIFICE      2.34     0  02:45                      0.32
  4                    ORIFICE      2.38     0  01:09                      1.00
  5                    ORIFICE     10.92     0  01:11                      1.00
  
  
  ***************************
  Flow Classification Summary
  ***************************
  
  -------------------------------------------------------------------------------------
                      Adjusted    ---------- Fraction of Time in Flow Class ---------- 
                       /Actual         Up    Down  Sub   Sup   Up    Down  Norm  Inlet 
  Conduit               Length    Dry  Dry   Dry   Crit  Crit  Crit  Crit  Ltd   Ctrl  
  -------------------------------------------------------------------------------------
  P1                      1.00   0.00  0.00  0.00  0.00  1.00  0.00  0.00  0.99  0.00
  P2                      1.00   0.00  0.00  0.00  0.95  0.05  0.00  0.00  1.00  0.00
  P3                      1.00   0.00  0.02  0.00  0.00  0.00  0.98  0.00  0.00  0.00
  P4                      1.00   0.00  0.00  0.00  0.00  1.00  0.00  0.00  0.00  0.00
  P5                      1.00   0.00  0.00  0.00  0.76  0.24  0.00  0.00  0.94  0.00
  P6                      1.00   0.00  0.00  0.00  0.00  1.00  0.00  0.00  1.00  0.00
  P7                      1.00   0.00  0.00  0.00  0.00  1.00  0.00  0.00  0.96  0.00
  P8                      1.00   0.00  0.00  0.00  1.00  0.00  0.00  0.00  0.00  0.00
  P9                      1.00   0.00  0.00  0.00  0.01  0.99  0.00  0.00  0.17  0.00
  P10                     1.00   0.00  0.02  0.00  0.17  0.81  0.00  0.00  0.22  0.00
  P11                     1.00   0.00  0.00  0.00  0.00  1.00  0.00  0.00  1.00  0.00
  P12                     1.00   0.00  0.00  0.00  0.00  1.00  0.00  0.00  1.00  0.00
  P13                     1.00   0.00  0.01  0.00  0.09  0.90  0.00  0.00  0.99  0.00
  P14                     1.00   0.00  0.00  0.00  0.00  1.00  0.00  0.00  1.00  0.00
  P15                     1.00   0.00  0.00  0.00  0.81  0.19  0.00  0.00  1.00  0.00
  P16                     1.00   0.00  0.00  0.00  0.01  0.99  0.00  0.00  0.11  0.00
  P17                     1.00   0.00  0.00  0.00  0.00  1.00  0.00  0.00  0.02  0.00
  P18                     1.00   0.00  0.00  0.00  0.00  1.00  0.00  0.00  0.00  0.00
  P19                     1.00   0.00  0.00  0.00  0.00  1.00  0.00  0.00  0.97  0.00
  P20                     1.00   0.00  0.00  0.00  0.00  1.00  0.00  0.00  0.02  0.00
  P21                     1.00   0.00  0.00  0.00  0.00  1.00  0.00  0.00  0.02  0.00
  P22                     1.00   0.00  0.00  0.00  0.00  1.00  0.00  0.00  1.00  0.00
  P23                     1.00   0.00  0.00  0.00  0.00  1.00  0.00  0.00  1.00  0.00
  P24                     1.00   0.00  0.00  0.00  0.00  1.00  0.00  0.00  1.00  0.00
  P25                     1.00   0.00  0.00  0.00  0.72  0.28  0.00  0.00  1.00  0.00
  P26                     1.00   0.00  0.00  0.00  0.79  0.21  0.00  0.00  0.91  0.00
  P27                     1.00   0.00  0.00  0.00  0.01  0.99  0.00  0.00  0.18  0.00
  P52                     1.00   0.00  0.00  0.00  0.00  1.00  0.00  0.00  0.67  0.00
  P53                     1.00   0.00  0.00  0.00  0.00  1.00  0.00  0.00  1.00  0.00
  P54                     1.00   0.00  0.00  0.00  0.00  1.00  0.00  0.00  0.99  0.00
  P55                     1.00   0.00  0.00  0.00  0.00  1.00  0.00  0.00  0.99  0.00
  P56                     1.00   0.00  0.00  0.00  0.01  0.99  0.00  0.00  0.03  0.00
  P57                     1.00   0.00  0.00  0.00  0.00  1.00  0.00  0.00  1.00  0.00
  P58                     1.00   0.00  0.00  0.00  0.79  0.21  0.00  0.00  0.99  0.00
  P59                     1.00   0.00  0.00  0.00  0.00  1.00  0.00  0.00  0.97  0.00
  P60                     1.00   0.00  0.00  0.00  0.00  0.99  0.00  0.00  1.00  0.00
  P61                     1.00   0.00  0.00  0.00  0.00  1.00  0.00  0.00  0.01  0.00
  P62                     1.00   0.00  0.00  0.00  0.85  0.15  0.00  0.00  0.99  0.00
  P63                     1.00   0.00  0.00  0.00  0.00  1.00  0.00  0.00  0.05  0.00
  P64                     1.00   0.00  0.00  0.00  0.83  0.17  0.00  0.00  0.93  0.00
  P65                     1.00   0.00  0.00  0.00  0.00  1.00  0.00  0.00  0.98  0.00
  P66                     1.00   0.00  0.00  0.00  0.75  0.25  0.00  0.00  0.80  0.00
  P67                     1.00   0.00  0.00  0.00  0.99  0.01  0.00  0.00  1.00  0.00
  P68                     1.00   0.00  0.00  0.00  0.00  1.00  0.00  0.00  0.31  0.00
  P69                     1.00   0.00  0.00  0.00  0.00  1.00  0.00  0.00  0.99  0.00
  P70                     1.00   0.00  0.00  0.00  0.78  0.22  0.00  0.00  1.00  0.00
  P71                     1.00   0.00  0.00  0.00  0.00  1.00  0.00  0.00  0.01  0.00
  P72                     1.00   0.00  0.00  0.00  0.14  0.86  0.00  0.00  0.99  0.00
  P73                     1.00   0.00  0.00  0.00  0.81  0.18  0.00  0.00  0.99  0.00
  P74                     1.00   0.00  0.00  0.00  0.18  0.82  0.00  0.00  0.80  0.00
  P75                     1.00   0.00  0.00  0.00  0.69  0.31  0.00  0.00  0.99  0.00
  P79                     1.00   0.00  0.00  0.00  0.00  1.00  0.00  0.00  1.00  0.00
  P83                     1.00   0.00  0.00  0.00  0.81  0.19  0.00  0.00  0.92  0.00
  P84                     1.00   0.00  0.00  0.00  0.93  0.07  0.00  0.00  0.96  0.00
  P85                     1.00   0.00  0.00  0.00  0.00  1.00  0.00  0.00  0.24  0.00
  P86                     1.00   0.00  0.00  0.00  0.00  1.00  0.00  0.00  1.00  0.00
  P87                     1.00   0.00  0.00  0.00  0.00  1.00  0.00  0.00  0.00  0.00
  P88                     1.00   0.00  0.00  0.00  0.00  1.00  0.00  0.00  0.36  0.00
  P89                     1.00   0.00  0.00  0.00  0.77  0.23  0.00  0.00  1.00  0.00
  P90                     1.00   0.00  0.00  0.00  0.00  1.00  0.00  0.00  1.00  0.00
  P91                     1.00   0.00  0.00  0.00  0.00  1.00  0.00  0.00  0.07  0.00
  P92                     1.00   0.00  0.00  0.00  0.80  0.20  0.00  0.00  1.00  0.00
  P93                     1.00   0.00  0.00  0.00  0.78  0.22  0.00  0.00  1.00  0.00
  P94                     1.00   0.00  0.00  0.00  0.70  0.30  0.00  0.00  0.98  0.00
  P95                     1.00   0.00  0.00  0.00  0.34  0.66  0.00  0.00  0.83  0.00
  P96                     1.00   0.00  0.00  0.00  0.81  0.19  0.00  0.00  0.93  0.00
  P97                     1.00   0.00  0.00  0.00  0.79  0.21  0.00  0.00  0.86  0.00
  P98                     1.00   0.00  0.00  0.00  0.00  1.00  0.00  0.00  1.00  0.00
  P99                     1.00   0.00  0.00  0.00  0.00  1.00  0.00  0.00  1.00  0.00
  
  
  *************************
  Conduit Surcharge Summary
  *************************
  
  ----------------------------------------------------------------------------
                                                           Hours        Hours 
                         --------- Hours Full --------   Above Full   Capacity
  Conduit                Both Ends  Upstream  Dnstream   Normal Flow   Limited
  ----------------------------------------------------------------------------
  P1                          0.01      0.01      0.04      0.01         0.01
  P2                          0.01      0.01      0.72      0.01         0.01
  P3                          0.01      0.01      0.72      0.01         0.01
  P14                         0.01      0.01      0.07      0.01         0.01
  P15                         0.01      0.01      0.07      0.01         0.01
  P25                         0.01      0.01      0.18      0.01         0.01
  P55                         0.01      0.01      0.09      0.01         0.01
  P58                         0.01      0.01      0.09      0.01         0.01
  P62                         0.01      0.01      0.13      0.01         0.01
  P64                         0.01      0.01      1.77      0.01         0.01
  P65                         0.01      0.01      0.11      0.01         0.01
  P67                         0.01      0.01      0.16      0.01         0.01
  P69                         0.01      0.01      0.07      0.01         0.01
  P70                         0.01      0.01      0.07      0.01         0.01
  P73                         0.01      0.01      0.02      0.01         0.01
  P75                         0.01      0.01      0.01      0.01         0.01
  P84                         0.01      0.01      4.40      0.01         0.01
  P85                         0.01      0.01      0.15      0.01         0.01
  P89                         0.01      0.01      0.15      0.01         0.01
  P90                         0.01      0.01      0.06      0.01         0.01
  P93                         0.01      0.01      0.05      0.01         0.01
  

  Analysis begun on:  Wed Jun 24 09:22:53 2026
  Analysis ended on:  Wed Jun 24 09:22:53 2026
  Total elapsed time: < 1 sec