
  EPA STORM WATER MANAGEMENT MODEL - VERSION 5.2 (Build 5.2.4)
  ------------------------------------------------------------

  
  ERROR 361: could not open external file used for Time Series TS_S0067285.
  
  ERROR 361: could not open external file used for Time Series TS_S0067922.
  
  ERROR 361: could not open external file used for Time Series TS_S0002285.
  
  ERROR 361: could not open external file used for Time Series TS_S0067286.
  
  ERROR 361: could not open external file used for Time Series TS_S0067287.
  
  ERROR 361: could not open external file used for Time Series TS_S0067917.
  
  ERROR 361: could not open external file used for Time Series TS_S0067918.
  
  ERROR 361: could not open external file used for Time Series TS_S0067919.
  
  ERROR 361: could not open external file used for Time Series TS_S0067920.
  
  ERROR 361: could not open external file used for Time Series TS_S0067921.

  Analysis begun on:  Wed Jun 24 09:23:58 2026
  Analysis ended on:  Wed Jun 24 09:23:58 2026
  Total elapsed time: < 1 sec