
  EPA STORM WATER MANAGEMENT MODEL - VERSION 5.2 (Build 5.2.4)
  ------------------------------------------------------------

  WARNING 03: negative offset ignored for Link 1095
  WARNING 03: negative offset ignored for Link 1586
  WARNING 03: negative offset ignored for Link 1767
  WARNING 03: negative offset ignored for Link 2184
  WARNING 03: negative offset ignored for Link 2259
  WARNING 03: negative offset ignored for Link 2375
  WARNING 03: negative offset ignored for Link 2628
  WARNING 03: negative offset ignored for Link 27252
  WARNING 04: minimum elevation drop used for Conduit 27252
  WARNING 03: negative offset ignored for Link 27425
  WARNING 03: negative offset ignored for Link 27425
  WARNING 04: minimum elevation drop used for Conduit 27425
  WARNING 03: negative offset ignored for Link 27427
  WARNING 03: negative offset ignored for Link 27427
  WARNING 03: negative offset ignored for Link 27429
  WARNING 03: negative offset ignored for Link 27429
  WARNING 03: negative offset ignored for Link 27431
  WARNING 03: negative offset ignored for Link 27431
  WARNING 03: negative offset ignored for Link 2763
  WARNING 03: negative offset ignored for Link 27678
  WARNING 03: negative offset ignored for Link 2826
  WARNING 03: negative offset ignored for Link 3591
  WARNING 03: negative offset ignored for Link 3599
  WARNING 03: negative offset ignored for Link 3643
  WARNING 03: negative offset ignored for Link 5453
  WARNING 04: minimum elevation drop used for Conduit 5453
  WARNING 03: negative offset ignored for Link 5855
  WARNING 03: negative offset ignored for Link 6011
  WARNING 03: negative offset ignored for Link 763
  WARNING 03: negative offset ignored for Link 863
  WARNING 03: negative offset ignored for Link CDT-101
  WARNING 03: negative offset ignored for Link CDT-101
  WARNING 03: negative offset ignored for Link CDT-103
  WARNING 03: negative offset ignored for Link CDT-103
  WARNING 03: negative offset ignored for Link CDT-105
  WARNING 03: negative offset ignored for Link CDT-105
  WARNING 03: negative offset ignored for Link CDT-107
  WARNING 03: negative offset ignored for Link CDT-77
  WARNING 03: negative offset ignored for Link CDT-77
  WARNING 03: negative offset ignored for Link CDT-79
  WARNING 03: negative offset ignored for Link CDT-79
  WARNING 03: negative offset ignored for Link CDT-81
  WARNING 03: negative offset ignored for Link CDT-81
  WARNING 03: negative offset ignored for Link CDT-83
  WARNING 03: negative offset ignored for Link CDT-83
  WARNING 03: negative offset ignored for Link CDT-85
  WARNING 03: negative offset ignored for Link CDT-85
  WARNING 03: negative offset ignored for Link CDT-87
  WARNING 03: negative offset ignored for Link CDT-87
  WARNING 03: negative offset ignored for Link CDT-89
  WARNING 03: negative offset ignored for Link CDT-89
  WARNING 03: negative offset ignored for Link CDT-91
  WARNING 03: negative offset ignored for Link CDT-91
  WARNING 03: negative offset ignored for Link CDT-93
  WARNING 03: negative offset ignored for Link CDT-93
  WARNING 03: negative offset ignored for Link CDT-95
  WARNING 03: negative offset ignored for Link CDT-95
  WARNING 03: negative offset ignored for Link CDT-97
  WARNING 03: negative offset ignored for Link CDT-97
  WARNING 03: negative offset ignored for Link CDT-99
  WARNING 03: negative offset ignored for Link CDT-99
  WARNING 02: maximum depth increased for Node 20449
  WARNING 02: maximum depth increased for Node 21238
  WARNING 02: maximum depth increased for Node 22108
  WARNING 02: maximum depth increased for Node 22709
  WARNING 02: maximum depth increased for Node 23119
  WARNING 02: maximum depth increased for Node 23252
  WARNING 02: maximum depth increased for Node 25206
  WARNING 02: maximum depth increased for Node 26429
  WARNING 02: maximum depth increased for Node 26537
  WARNING 02: maximum depth increased for Node 26542
  WARNING 02: maximum depth increased for Node 26918
  WARNING 02: maximum depth increased for Node 27290
  WARNING 02: maximum depth increased for Node 27291
  WARNING 02: maximum depth increased for Node 27326
  WARNING 02: maximum depth increased for Node 27328
  WARNING 02: maximum depth increased for Node 30009
  WARNING 02: maximum depth increased for Node 30010
  WARNING 02: maximum depth increased for Node 30011
  WARNING 02: maximum depth increased for Node 30012
  WARNING 02: maximum depth increased for Node 30013
  WARNING 02: maximum depth increased for Node 30014
  WARNING 02: maximum depth increased for Node 30015
  WARNING 02: maximum depth increased for Node 30016
  WARNING 02: maximum depth increased for Node 30017
  WARNING 02: maximum depth increased for Node 30018
  WARNING 02: maximum depth increased for Node 30019
  WARNING 02: maximum depth increased for Node 30020
  WARNING 02: maximum depth increased for Node 30021
  WARNING 02: maximum depth increased for Node 30022
  WARNING 02: maximum depth increased for Node 30023
  WARNING 02: maximum depth increased for Node 30024
  WARNING 02: maximum depth increased for Node 30025
  WARNING 02: maximum depth increased for Node 30026
  WARNING 02: maximum depth increased for Node 30027
  WARNING 02: maximum depth increased for Node 30034
  WARNING 02: maximum depth increased for Node JCT-10
  WARNING 02: maximum depth increased for Node JCT-12
  WARNING 02: maximum depth increased for Node JCT-14
  WARNING 02: maximum depth increased for Node JCT-16
  
  ****************
  Analysis Options
  ****************
  Flow Units ............... MGD
  Process Models:
    Rainfall/Runoff ........ NO
    RDII ................... YES
    Snowmelt ............... NO
    Groundwater ............ NO
    Flow Routing ........... YES
    Ponding Allowed ........ NO
    Water Quality .......... NO
  Flow Routing Method ...... DYNWAVE
  Surcharge Method ......... EXTRAN
  Starting Date ............ 12/17/2002 00:00:00
  Ending Date .............. 12/18/2002 23:55:00
  Antecedent Dry Days ...... 1.0
  Report Time Step ......... 00:05:00
  Routing Time Step ........ 30.00 sec
  Variable Time Step ....... YES
  Maximum Trials ........... 8
  Number of Threads ........ 1
  Head Tolerance ........... 0.005000 ft
  
  
  **************************        Volume        Volume
  Flow Routing Continuity        acre-feet      10^6 gal
  **************************     ---------     ---------
  Dry Weather Inflow .......        39.858        12.988
  Wet Weather Inflow .......         0.000         0.000
  Groundwater Inflow .......         0.000         0.000
  RDII Inflow ..............         0.000         0.000
  External Inflow ..........        24.507         7.986
  External Outflow .........        56.629        18.453
  Flooding Loss ............         2.869         0.935
  Evaporation Loss .........         0.000         0.000
  Exfiltration Loss ........         0.000         0.000
  Initial Stored Volume ....         0.001         0.000
  Final Stored Volume ......         4.003         1.304
  Continuity Error (%) .....         1.344
  
  
  *************************
  Highest Continuity Errors
  *************************
  Node 30010 (100.00%)
  Node 30011 (100.00%)
  Node 30012 (100.00%)
  Node 30013 (100.00%)
  Node 30014 (100.00%)
  
  
  ***************************
  Time-Step Critical Elements
  ***************************
  Link 3009 (82.09%)
  Link 27401 (8.25%)
  Link 6213 (6.03%)
  Link 2259 (2.68%)
  
  
  ********************************
  Highest Flow Instability Indexes
  ********************************
  Link 5318 (83)
  Link 5319 (49)
  Link CDT-15 (39)
  Link 5858 (33)
  Link 30000 (32)
  
  
  *********************************
  Most Frequent Nonconverging Nodes
  *********************************
  Node 27808 (5.88%)
  Node 24079 (2.23%)
  Node 27402 (2.15%)
  Node 27400 (1.79%)
  Node 25777 (0.97%)
  
  
  *************************
  Routing Time Step Summary
  *************************
  Minimum Time Step           :     0.50 sec
  Average Time Step           :     4.47 sec
  Maximum Time Step           :    22.92 sec
  % of Time in Steady State   :     0.00
  Average Iterations per Step :     4.36
  % of Steps Not Converging   :     5.88
  Time Step Frequencies       :
     30.000 - 13.228 sec      :     0.01 %
     13.228 -  5.833 sec      :     1.07 %
      5.833 -  2.572 sec      :    96.06 %
      2.572 -  1.134 sec      :     2.68 %
      1.134 -  0.500 sec      :     0.19 %
  
  
  ******************
  Node Depth Summary
  ******************
  
  ---------------------------------------------------------------------------------
                                 Average  Maximum  Maximum  Time of Max    Reported
                                   Depth    Depth      HGL   Occurrence   Max Depth
  Node                 Type         Feet     Feet     Feet  days hr:min        Feet
  ---------------------------------------------------------------------------------
  20358                JUNCTION     0.28     0.32   542.12     0  14:01        0.32
  20361                JUNCTION     0.09     0.10   536.94     0  10:09        0.10
  20362                JUNCTION     0.07     0.08   535.62     0  10:26        0.08
  20363                JUNCTION     0.08     0.09   531.81     0  11:00        0.09
  20364                JUNCTION     0.09     0.10   530.42     0  11:00        0.10
  20365                JUNCTION     0.06     0.07   536.40     0  11:00        0.07
  20366                JUNCTION     0.04     0.04   538.29     0  11:00        0.04
  20374                JUNCTION     0.09     0.09   534.90     1  13:00        0.09
  20375                JUNCTION     0.06     0.06   534.04     1  13:00        0.06
  20377                JUNCTION     0.11     0.12   529.90     0  12:00        0.12
  20378                JUNCTION     0.12     0.12   529.09     0  12:00        0.12
  20379                JUNCTION     0.03     0.04   535.82     0  11:00        0.04
  20380                JUNCTION     0.08     0.08   531.86     0  11:00        0.08
  20383                JUNCTION     0.07     0.08   533.23     0  00:10        0.08
  20385                JUNCTION     0.13     0.13   528.43     0  12:00        0.13
  20386                JUNCTION     0.13     0.13   527.63     0  12:00        0.13
  20389                JUNCTION     0.05     0.06   538.24     1  13:00        0.06
  20392                JUNCTION     0.07     0.08   526.79     0  10:38        0.08
  20395                JUNCTION     0.16     0.18   521.06     0  11:00        0.18
  20396                JUNCTION     0.19     0.20   518.40     0  11:00        0.20
  20397                JUNCTION     0.21     0.22   518.29     0  11:00        0.22
  20398                JUNCTION     0.19     0.21   522.60     0  11:00        0.21
  20399                JUNCTION     0.19     0.21   521.61     0  11:00        0.21
  20402                JUNCTION     0.02     0.02   532.65     0  11:00        0.02
  20403                JUNCTION     0.07     0.07   529.14     0  10:38        0.07
  20405                JUNCTION     0.08     0.08   535.67     0  11:00        0.08
  20408                JUNCTION     0.08     0.09   525.49     0  10:42        0.09
  20409                JUNCTION     0.17     0.17   523.73     0  11:00        0.17
  20412                JUNCTION     0.14     0.14   525.20     0  12:00        0.14
  20413                JUNCTION     0.15     0.16   525.43     0  12:00        0.16
  20414                JUNCTION     0.07     0.08   527.77     0  09:06        0.08
  20415                JUNCTION     0.07     0.08   527.00     0  11:00        0.08
  20416                JUNCTION     0.14     0.15   526.14     0  12:00        0.15
  20417                JUNCTION     0.13     0.13   524.70     0  11:04        0.13
  20426                JUNCTION     0.15     0.15   536.81     0  11:00        0.15
  20429                JUNCTION     0.10     0.10   532.80     0  11:00        0.10
  20430                JUNCTION     0.10     0.10   531.49     0  11:00        0.10
  20432                JUNCTION     0.08     0.09   526.34     0  10:36        0.09
  20436                JUNCTION     0.11     0.12   534.23     0  11:00        0.12
  20437                JUNCTION     0.08     0.08   535.08     0  11:00        0.08
  20439                JUNCTION     0.08     0.09   530.75     1  09:09        0.09
  20440                JUNCTION     0.08     0.09   530.32     0  11:00        0.09
  20444                JUNCTION     0.10     0.10   537.54     0  11:00        0.10
  20445                JUNCTION     0.10     0.10   539.31     0  11:00        0.10
  20449                JUNCTION     0.06     0.07   540.47     0  11:00        0.07
  20455                JUNCTION     0.02     0.02   544.03     0  00:01        0.02
  20456                JUNCTION     0.04     0.05   541.43     0  00:11        0.05
  20459                JUNCTION     0.06     0.07   530.69     0  09:07        0.07
  20460                JUNCTION     0.06     0.07   529.49     0  10:17        0.07
  20479                JUNCTION     0.00     0.00   511.91     0  00:00        0.00
  20480                JUNCTION     0.02     0.03   510.70     0  11:00        0.03
  20481                JUNCTION     0.03     0.03   509.10     0  11:00        0.03
  20482                JUNCTION     0.15     0.17   503.35     0  11:00        0.17
  20485                JUNCTION     0.05     0.06   559.91     0  10:50        0.06
  20486                JUNCTION     0.11     0.12   557.78     1  10:37        0.12
  20487                JUNCTION     0.11     0.13   548.86     0  10:06        0.13
  20490                JUNCTION     0.11     0.12   538.12     0  10:10        0.12
  20491                JUNCTION     0.15     0.17   529.41     0  10:13        0.17
  20492                JUNCTION     0.08     0.09   522.94     0  10:15        0.09
  20499                JUNCTION     0.03     0.03   524.18     1  10:48        0.03
  20501                JUNCTION     0.01     0.02   525.32     1  10:53        0.02
  20504                JUNCTION     0.18     0.20   501.47     0  10:27        0.20
  20509                JUNCTION     0.05     0.06   513.17     0  10:49        0.06
  20510                JUNCTION     0.17     0.19   499.57     0  10:43        0.19
  20511                JUNCTION     0.21     0.23   497.30     1  10:54        0.23
  20512                JUNCTION     0.23     0.25   496.68     1  10:55        0.25
  20513                JUNCTION     0.19     0.22   496.13     0  11:00        0.22
  20525                JUNCTION     0.18     0.20   516.61     0  11:00        0.20
  20532                JUNCTION     0.06     0.07   508.45     0  10:34        0.07
  20533                JUNCTION     0.07     0.07   506.90     0  10:45        0.07
  20534                JUNCTION     0.26     0.29   506.83     0  11:00        0.29
  20537                JUNCTION     0.27     0.30   505.33     0  11:00        0.30
  20538                JUNCTION     0.29     0.33   505.40     0  11:00        0.33
  20541                JUNCTION     0.34     0.38   504.41     0  11:00        0.38
  20547                JUNCTION     0.12     0.14   526.94     1  10:12        0.14
  20548                JUNCTION     0.33     0.36   518.43     0  11:00        0.36
  20551                JUNCTION     0.06     0.06   537.09     0  11:00        0.06
  20552                JUNCTION     0.17     0.18   535.39     0  11:00        0.18
  20553                JUNCTION     0.17     0.18   530.96     0  11:00        0.18
  20554                JUNCTION     0.20     0.22   526.43     0  11:00        0.22
  20555                JUNCTION     0.23     0.25   523.42     0  11:01        0.25
  20556                JUNCTION     0.19     0.21   521.91     0  11:01        0.21
  20557                JUNCTION     0.13     0.15   550.68     0  11:00        0.15
  20558                JUNCTION     0.23     0.25   545.85     0  11:00        0.25
  20560                JUNCTION     0.25     0.28   544.76     0  11:00        0.28
  20561                JUNCTION     0.18     0.20   543.54     0  11:00        0.20
  20562                JUNCTION     0.13     0.14   540.68     0  11:00        0.14
  20566                JUNCTION     0.06     0.07   524.47     0  11:00        0.07
  20567                JUNCTION     0.29     0.32   505.81     0  11:00        0.32
  20568                JUNCTION     0.20     0.22   508.57     0  11:00        0.22
  20569                JUNCTION     0.14     0.16   520.40     0  11:00        0.16
  20570                JUNCTION     0.29     0.33   520.98     0  11:00        0.33
  20571                JUNCTION     0.08     0.09   521.85     0  10:53        0.09
  20583                JUNCTION     0.09     0.10   529.95     1  10:39        0.10
  20584                JUNCTION     0.12     0.13   529.04     0  11:00        0.13
  20588                JUNCTION     0.03     0.04   540.56     1  10:48        0.04
  20589                JUNCTION     0.24     0.27   528.25     0  10:37        0.27
  20590                JUNCTION     0.21     0.23   527.67     0  10:39        0.23
  20591                JUNCTION     0.22     0.24   527.22     0  10:41        0.24
  20594                JUNCTION     0.23     0.26   526.62     0  10:42        0.26
  20595                JUNCTION     0.22     0.24   526.41     0  10:43        0.24
  20596                JUNCTION     0.23     0.26   525.74     1  10:44        0.26
  20598                JUNCTION     0.22     0.24   525.43     1  10:45        0.24
  20599                JUNCTION     0.25     0.28   525.21     0  10:48        0.28
  20600                JUNCTION     0.25     0.29   524.42     0  10:52        0.29
  20601                JUNCTION     0.03     0.04   528.04     1  10:06        0.04
  20602                JUNCTION     0.18     0.20   523.78     0  10:53        0.20
  20603                JUNCTION     0.26     0.29   522.27     0  10:55        0.29
  20629                JUNCTION     0.14     0.16   540.06     0  10:27        0.16
  20633                JUNCTION     0.16     0.18   542.05     0  10:19        0.18
  20634                JUNCTION     0.11     0.12   541.23     0  10:24        0.12
  20638                JUNCTION     0.13     0.14   542.77     0  10:48        0.14
  20640                JUNCTION     0.19     0.21   539.38     0  11:02        0.21
  20641                JUNCTION     0.18     0.20   538.95     0  10:33        0.20
  20642                JUNCTION     0.08     0.09   537.30     0  10:34        0.09
  20645                JUNCTION     0.05     0.06   526.27     0  11:00        0.06
  20756                JUNCTION     0.14     0.15   527.62     0  10:13        0.15
  20757                JUNCTION     0.14     0.15   526.26     0  10:22        0.15
  20758                JUNCTION     0.11     0.12   529.14     0  10:51        0.12
  20763                JUNCTION     0.06     0.07   521.95     1  10:43        0.07
  20764                JUNCTION     0.19     0.22   520.62     0  10:36        0.22
  20766                JUNCTION     0.05     0.06   526.90     0  11:00        0.06
  20768                JUNCTION     0.16     0.17   524.32     0  10:26        0.17
  20799                JUNCTION     0.04     0.05   525.53     1  10:42        0.05
  20802                JUNCTION     0.06     0.06   521.07     0  11:00        0.06
  20804                JUNCTION     0.11     0.13   519.35     1  10:36        0.13
  20867                JUNCTION     0.13     0.14   518.64     0  11:00        0.14
  20871                JUNCTION     0.13     0.15   517.76     0  11:00        0.15
  20872                JUNCTION     0.40     0.47   517.09     0  10:59        0.47
  20879                JUNCTION     0.05     0.05   517.02     1  10:16        0.05
  20904                JUNCTION     0.51     0.56   466.57     0  10:56        0.56
  20905                JUNCTION     0.51     0.57   465.48     0  10:58        0.57
  20906                JUNCTION     0.36     0.40   470.81     1  11:04        0.40
  20907                JUNCTION     0.48     0.53   472.73     1  11:03        0.53
  20908                JUNCTION     0.56     0.61   475.45     1  11:01        0.61
  20909                JUNCTION     0.44     0.49   475.29     1  11:02        0.49
  20910                JUNCTION     0.48     0.54   468.31     0  11:00        0.54
  20911                JUNCTION     0.40     0.45   469.53     0  11:00        0.45
  20912                JUNCTION     0.17     0.18   487.18     0  11:00        0.18
  20917                JUNCTION     0.06     0.06   512.06     1  10:59        0.06
  20919                JUNCTION     0.50     0.56   510.71     0  11:00        0.56
  20920                JUNCTION     0.34     0.38   511.79     0  11:00        0.38
  20922                JUNCTION     0.33     0.37   513.06     0  11:00        0.37
  20924                JUNCTION     0.37     0.42   514.00     0  11:00        0.42
  20926                JUNCTION     0.37     0.42   514.46     0  11:00        0.42
  20927                JUNCTION     0.38     0.44   515.04     0  11:00        0.44
  20928                JUNCTION     0.82     0.88   515.90     0  11:00        0.88
  20929                JUNCTION     0.13     0.14   515.16     0  11:00        0.14
  20930                JUNCTION     0.13     0.14   516.43     0  11:00        0.14
  20931                JUNCTION     0.11     0.12   517.71     0  11:00        0.12
  20932                JUNCTION     0.05     0.06   521.21     0  10:21        0.06
  20955                JUNCTION     0.03     0.04   521.91     0  10:48        0.04
  20959                JUNCTION     0.08     0.09   519.20     0  11:00        0.09
  20964                JUNCTION     0.46     0.59   516.41     0  11:00        0.59
  20965                JUNCTION     0.07     0.08   518.81     0  10:28        0.08
  20971                JUNCTION     0.35     0.40   519.30     0  10:45        0.40
  20972                JUNCTION     0.35     0.40   518.55     0  10:44        0.40
  20973                JUNCTION     0.35     0.40   517.78     0  10:48        0.40
  20974                JUNCTION     0.35     0.40   519.71     0  10:43        0.40
  20975                JUNCTION     0.21     0.24   521.04     0  11:00        0.24
  20979                JUNCTION     0.21     0.24   519.89     0  10:41        0.24
  20981                JUNCTION     0.04     0.04   520.32     0  11:00        0.04
  20982                JUNCTION     0.07     0.07   520.85     0  11:00        0.07
  20983                JUNCTION     0.06     0.07   521.99     1  10:29        0.07
  20988                JUNCTION     0.16     0.18   525.01     0  10:55        0.18
  20989                JUNCTION     0.20     0.23   523.06     0  11:00        0.23
  20990                JUNCTION     0.06     0.07   523.89     0  11:00        0.07
  20991                JUNCTION     0.04     0.04   516.44     0  10:18        0.04
  20992                JUNCTION     0.08     0.09   486.79     0  11:00        0.09
  20993                JUNCTION     0.05     0.05   524.11     0  10:07        0.05
  20994                JUNCTION     0.08     0.09   484.63     0  11:00        0.09
  21004                JUNCTION     0.17     0.18   477.49     0  10:44        0.18
  21005                JUNCTION     0.37     0.41   476.61     0  11:14        0.41
  21006                JUNCTION     0.28     0.30   476.68     0  11:00        0.30
  21007                JUNCTION     0.28     0.31   478.47     0  11:01        0.31
  21008                JUNCTION     0.44     0.49   477.69     0  11:12        0.49
  21009                JUNCTION     0.47     0.52   478.32     0  11:12        0.52
  21010                JUNCTION     0.09     0.09   478.90     0  11:00        0.09
  21011                JUNCTION     0.10     0.10   478.95     0  11:00        0.10
  21012                JUNCTION     0.07     0.07   480.73     0  11:00        0.07
  21013                JUNCTION     0.19     0.20   483.62     0  11:00        0.20
  21014                JUNCTION     0.03     0.04   506.76     0  11:00        0.04
  21015                JUNCTION     0.04     0.05   523.04     0  11:00        0.05
  21016                JUNCTION     0.26     0.28   487.47     0  11:00        0.28
  21017                JUNCTION     0.05     0.06   480.51     0  11:00        0.06
  21019                JUNCTION     0.24     0.26   518.84     0  10:40        0.26
  21020                JUNCTION     0.02     0.03   530.03     1  10:59        0.03
  21021                JUNCTION     0.25     0.27   518.41     0  10:42        0.27
  21022                JUNCTION     0.19     0.21   518.21     0  10:42        0.21
  21023                JUNCTION     0.24     0.27   519.41     0  10:38        0.27
  21024                JUNCTION     0.24     0.26   520.02     0  10:29        0.26
  21025                JUNCTION     0.23     0.26   520.60     0  10:27        0.26
  21026                JUNCTION     0.24     0.28   521.12     0  10:25        0.28
  21027                JUNCTION     0.10     0.36   522.29     0  00:45        0.35
  21028                JUNCTION     0.05     0.06   522.32     0  10:25        0.06
  21029                JUNCTION     0.09     0.09   517.18     0  10:43        0.09
  21030                JUNCTION     0.05     0.05   526.32     1  10:36        0.05
  21035                JUNCTION     0.10     0.11   506.48     0  10:07        0.11
  21036                JUNCTION     0.09     0.09   505.06     0  10:16        0.09
  21038                JUNCTION     0.05     0.06   511.78     0  10:34        0.06
  21044                JUNCTION     0.18     0.19   522.00     0  11:00        0.19
  21045                JUNCTION     0.19     0.21   522.78     0  11:00        0.21
  21046                JUNCTION     0.18     0.19   523.01     0  11:00        0.19
  21048                JUNCTION     0.17     0.19   523.39     0  11:00        0.19
  21049                JUNCTION     0.05     0.06   526.32     1  10:42        0.06
  21053                JUNCTION     0.03     0.03   535.52     0  11:00        0.03
  21054                JUNCTION     0.03     0.04   532.73     1  11:00        0.04
  21055                JUNCTION     0.04     0.05   531.06     0  11:00        0.05
  21056                JUNCTION     0.04     0.04   525.66     0  11:00        0.04
  21058                JUNCTION     0.03     0.03   531.04     0  11:00        0.03
  21059                JUNCTION     0.21     0.23   492.97     0  11:00        0.23
  21060                JUNCTION     0.43     0.48   479.60     0  11:09        0.48
  21061                JUNCTION     0.07     0.08   482.26     0  11:00        0.08
  21063                JUNCTION     0.42     0.47   480.61     0  11:10        0.47
  21064                JUNCTION     0.07     0.08   483.71     0  11:00        0.08
  21065                JUNCTION     0.08     0.08   484.74     0  11:00        0.08
  21066                JUNCTION     0.08     0.08   485.72     0  11:00        0.08
  21067                JUNCTION     0.06     0.06   489.26     0  11:00        0.06
  21068                JUNCTION     0.05     0.06   492.26     0  11:00        0.06
  21069                JUNCTION     0.34     0.38   491.38     0  11:06        0.38
  21070                JUNCTION     0.34     0.38   488.49     0  11:08        0.38
  21071                JUNCTION     0.16     0.17   482.13     0  11:00        0.17
  21072                JUNCTION     0.20     0.21   481.50     0  11:00        0.21
  21073                JUNCTION     0.09     0.10   482.87     0  11:00        0.10
  21075                JUNCTION     0.13     0.14   482.89     0  11:00        0.14
  21076                JUNCTION     0.12     0.13   484.12     0  11:00        0.13
  21078                JUNCTION     0.09     0.10   484.88     0  11:00        0.10
  21079                JUNCTION     0.10     0.10   488.20     0  11:00        0.10
  21080                JUNCTION     0.09     0.09   491.28     0  11:00        0.09
  21083                JUNCTION     0.03     0.03   489.96     0  11:00        0.03
  21084                JUNCTION     0.06     0.06   506.36     0  10:16        0.06
  21089                JUNCTION     0.07     0.07   514.06     0  10:06        0.07
  21090                JUNCTION     0.05     0.06   492.94     1  10:59        0.06
  21106                JUNCTION     0.20     0.22   496.22     0  11:00        0.22
  21107                JUNCTION     0.09     0.10   497.39     0  10:59        0.10
  21108                JUNCTION     0.03     0.04   500.82     0  11:00        0.04
  21109                JUNCTION     0.07     0.07   497.84     0  10:53        0.07
  21110                JUNCTION     0.08     0.09   498.20     1  10:31        0.09
  21114                JUNCTION     0.03     0.03   525.90     0  10:13        0.03
  21115                JUNCTION     0.04     0.04   531.44     0  10:09        0.04
  21123                JUNCTION     0.10     0.12   525.42     0  10:24        0.12
  21124                JUNCTION     0.21     0.23   499.99     0  11:00        0.23
  21125                JUNCTION     0.26     0.28   496.40     0  11:00        0.28
  21130                JUNCTION     0.05     0.05   520.15     0  10:45        0.05
  21131                JUNCTION     0.07     0.07   513.09     0  11:00        0.07
  21132                JUNCTION     0.19     0.21   508.68     0  11:00        0.21
  21133                JUNCTION     0.15     0.16   509.23     0  11:00        0.16
  21134                JUNCTION     0.21     0.22   507.44     0  11:00        0.22
  21135                JUNCTION     0.12     0.13   517.36     0  11:00        0.13
  21136                JUNCTION     0.14     0.16   518.80     0  11:00        0.16
  21137                JUNCTION     0.22     0.24   502.46     0  11:00        0.24
  21138                JUNCTION     0.22     0.24   500.83     0  11:00        0.24
  21150                JUNCTION     0.04     0.05   523.63     0  10:23        0.05
  21151                JUNCTION     0.07     0.07   519.14     0  10:59        0.07
  21152                JUNCTION     0.09     0.09   517.65     0  11:00        0.09
  21153                JUNCTION     0.05     0.06   516.81     0  11:00        0.06
  21157                JUNCTION     0.09     0.09   492.09     0  11:00        0.09
  21158                JUNCTION     0.34     0.37   486.83     0  11:02        0.37
  21159                JUNCTION     0.07     0.07   522.20     0  11:00        0.07
  21160                JUNCTION     0.14     0.15   524.40     0  11:00        0.15
  21165                JUNCTION     0.18     0.20   523.30     0  11:00        0.20
  21166                JUNCTION     0.09     0.09   524.66     0  11:00        0.09
  21167                JUNCTION     0.08     0.08   523.31     0  11:00        0.08
  21170                JUNCTION     0.07     0.08   524.83     0  11:00        0.08
  21171                JUNCTION     0.36     0.40   493.38     0  11:05        0.40
  21172                JUNCTION     0.05     0.05   497.07     0  11:00        0.05
  21173                JUNCTION     0.04     0.04   498.61     0  11:00        0.04
  21174                JUNCTION     0.39     0.44   494.46     0  11:03        0.43
  21175                JUNCTION     0.04     0.04   500.07     0  11:00        0.04
  21176                JUNCTION     0.14     0.16   502.14     0  11:00        0.16
  21177                JUNCTION     0.44     0.49   495.19     0  11:01        0.49
  21188                JUNCTION     0.47     0.53   504.34     0  11:00        0.53
  21190                JUNCTION     0.11     0.12   526.48     0  11:00        0.12
  21191                JUNCTION     0.17     0.18   523.54     0  11:03        0.18
  21192                JUNCTION     0.19     0.21   521.69     0  11:00        0.21
  21193                JUNCTION     0.20     0.23   520.15     0  11:00        0.23
  21194                JUNCTION     0.17     0.19   522.59     0  11:00        0.19
  21195                JUNCTION     0.02     0.02   531.17     1  10:31        0.02
  21198                JUNCTION     0.04     0.04   527.95     0  10:27        0.04
  21199                JUNCTION     0.08     0.09   528.44     0  10:26        0.09
  21200                JUNCTION     0.05     0.05   530.02     1  10:59        0.05
  21201                JUNCTION     0.17     0.18   523.58     0  11:01        0.18
  21208                JUNCTION     0.06     0.06   527.79     0  09:06        0.06
  21215                JUNCTION     0.12     0.13   526.80     0  12:00        0.13
  21217                JUNCTION     0.03     0.03   536.52     0  02:13        0.03
  21218                JUNCTION     0.06     0.06   534.97     0  11:00        0.06
  21219                JUNCTION     0.07     0.07   533.41     0  11:00        0.07
  21220                JUNCTION     0.02     0.02   539.29     0  11:00        0.02
  21224                JUNCTION     0.04     0.04   560.64     1  10:38        0.04
  21226                JUNCTION     0.10     0.11   554.52     0  11:00        0.11
  21227                JUNCTION     0.12     0.13   551.74     0  11:00        0.13
  21228                JUNCTION     0.03     0.03   570.66     1  10:39        0.03
  21231                JUNCTION     0.18     0.19   551.82     0  11:00        0.19
  21232                JUNCTION     0.20     0.22   550.82     0  11:00        0.22
  21233                JUNCTION     0.16     0.18   553.90     0  11:00        0.18
  21234                JUNCTION     0.15     0.17   555.72     0  11:00        0.17
  21235                JUNCTION     0.16     0.17   557.45     0  11:00        0.17
  21236                JUNCTION     0.08     0.09   556.76     0  11:00        0.09
  21238                JUNCTION     0.10     0.11   558.02     0  11:00        0.11
  21243                JUNCTION     0.03     0.04   541.56     0  00:07        0.04
  21244                JUNCTION     0.05     0.05   540.85     0  14:00        0.05
  21245                JUNCTION     0.06     0.07   539.59     0  00:48        0.07
  21284                JUNCTION     0.04     0.04   534.48     0  23:43        0.04
  21285                JUNCTION     0.15     0.16   524.75     0  13:07        0.16
  21286                JUNCTION     0.07     0.08   525.98     0  12:32        0.08
  21287                JUNCTION     0.08     0.08   526.68     0  12:24        0.08
  21288                JUNCTION     0.11     0.11   524.61     0  12:00        0.11
  21289                JUNCTION     0.04     0.04   526.05     0  00:08        0.04
  21295                JUNCTION     0.02     0.02   533.50     1  02:25        0.02
  21299                JUNCTION     0.04     0.04   531.13     0  03:15        0.04
  21301                JUNCTION     0.02     0.02   530.31     0  02:23        0.02
  21303                JUNCTION     0.05     0.05   528.75     0  11:00        0.05
  21304                JUNCTION     0.07     0.07   526.36     0  11:00        0.07
  21305                JUNCTION     0.04     0.04   529.90     0  11:00        0.04
  21306                JUNCTION     0.04     0.05   526.70     0  11:00        0.05
  21307                JUNCTION     0.02     0.02   531.74     0  00:52        0.02
  21308                JUNCTION     0.02     0.02   532.36     0  00:18        0.02
  21309                JUNCTION     0.02     0.02   533.17     0  00:09        0.02
  21318                JUNCTION     0.36     0.41   543.38     0  14:00        0.41
  21319                JUNCTION     0.20     0.22   542.52     0  14:00        0.22
  21320                JUNCTION     0.07     0.08   548.08     0  14:00        0.08
  21323                JUNCTION     0.44     0.48   541.58     0  14:00        0.48
  21324                JUNCTION     0.34     0.39   542.62     0  14:00        0.39
  21325                JUNCTION     0.42     0.51   540.40     0  14:00        0.51
  21326                JUNCTION     0.22     0.25   539.23     0  14:00        0.25
  21327                JUNCTION     0.41     0.47   538.99     0  14:00        0.47
  21328                JUNCTION     0.35     0.40   538.77     0  14:00        0.40
  21331                JUNCTION     0.20     0.22   522.95     0  10:34        0.22
  21343                JUNCTION     0.27     0.31   495.23     0  11:03        0.31
  21344                JUNCTION     0.21     0.23   495.84     0  11:00        0.23
  21353                JUNCTION     0.22     0.25   523.40     0  10:24        0.25
  21359                JUNCTION     0.09     0.10   483.24     0  11:00        0.10
  21362                JUNCTION     0.44     0.49   480.69     0  11:09        0.49
  21363                JUNCTION     0.30     0.34   484.81     0  11:08        0.34
  21369                JUNCTION     0.04     0.04   549.96     1  10:54        0.04
  21430                JUNCTION     0.36     0.39   604.19     1  08:01        0.39
  21431                JUNCTION     0.30     0.32   603.24     1  08:01        0.32
  21480                JUNCTION     0.04     0.04   687.67     1  08:00        0.04
  21481                JUNCTION     0.10     0.11   684.97     1  08:00        0.11
  21488                JUNCTION     0.24     0.26   583.35     1  08:00        0.26
  21489                JUNCTION     0.30     0.32   575.49     1  08:00        0.32
  21491                JUNCTION     0.03     0.04   515.13     1  13:00        0.04
  21492                JUNCTION     0.06     0.06   519.45     0  13:00        0.06
  21493                JUNCTION     0.07     0.07   515.99     1  13:00        0.07
  21496                JUNCTION     0.24     0.30   747.51     1  07:52        0.30
  21497                JUNCTION     0.13     0.16   745.96     1  07:52        0.16
  21501                JUNCTION     0.06     0.06   706.10     0  07:52        0.06
  21502                JUNCTION     0.03     0.03   642.69     1  10:15        0.03
  21503                JUNCTION     0.21     0.24   541.19     0  11:00        0.24
  21506                JUNCTION     0.03     0.04   654.84     1  10:47        0.04
  21507                JUNCTION     0.14     0.16   566.15     0  11:00        0.16
  21508                JUNCTION     0.03     0.03   699.72     0  21:55        0.03
  21509                JUNCTION     0.11     0.12   692.45     0  11:00        0.12
  21514                JUNCTION     0.08     0.09   623.94     1  08:00        0.09
  21515                JUNCTION     0.08     0.09   596.38     1  08:00        0.09
  21516                JUNCTION     0.06     0.06   694.84     0  10:22        0.06
  21517                JUNCTION     0.05     0.05   691.62     0  10:25        0.05
  21518                JUNCTION     0.13     0.14   704.17     0  11:00        0.14
  21519                JUNCTION     0.14     0.15   702.64     0  11:00        0.15
  21528                JUNCTION     0.11     0.12   706.75     0  00:04        0.12
  21529                JUNCTION     0.12     0.12   705.75     0  11:00        0.12
  21532                JUNCTION     0.11     0.12   697.62     0  11:00        0.12
  21535                JUNCTION     0.17     0.18   699.48     0  11:00        0.18
  21537                JUNCTION     0.08     0.09   705.82     0  11:00        0.09
  21538                JUNCTION     0.15     0.16   701.02     0  11:00        0.16
  21539                JUNCTION     0.09     0.10   707.03     0  11:00        0.10
  21540                JUNCTION     0.10     0.12   705.60     0  11:00        0.12
  21543                JUNCTION     0.05     0.05   707.06     0  11:00        0.05
  21545                JUNCTION     0.11     0.13   704.06     0  11:00        0.13
  21546                JUNCTION     0.12     0.14   703.08     0  11:00        0.14
  21547                JUNCTION     0.12     0.14   701.48     0  11:00        0.14
  21549                JUNCTION     0.15     0.16   683.95     0  11:00        0.16
  21550                JUNCTION     0.13     0.14   688.60     0  11:00        0.14
  21551                JUNCTION     0.05     0.06   698.61     0  10:08        0.06
  21552                JUNCTION     0.05     0.05   697.18     0  10:18        0.05
  21556                JUNCTION     0.06     0.06   706.06     0  08:00        0.06
  21557                JUNCTION     0.07     0.07   704.53     1  08:00        0.07
  21558                JUNCTION     0.08     0.09   650.05     1  08:00        0.09
  21559                JUNCTION     0.15     0.17   651.87     0  11:00        0.17
  21560                JUNCTION     0.11     0.12   649.49     0  11:00        0.12
  21563                JUNCTION     0.21     0.24   549.17     0  11:00        0.24
  21564                JUNCTION     0.08     0.08   660.65     1  10:00        0.08
  21565                JUNCTION     0.10     0.11   655.61     1  10:00        0.11
  21569                JUNCTION     0.05     0.06   662.99     0  11:00        0.06
  21571                JUNCTION     0.02     0.02   653.68     1  10:26        0.02
  21572                JUNCTION     0.13     0.15   590.08     0  11:00        0.15
  21573                JUNCTION     0.14     0.16   578.87     0  11:00        0.16
  21576                JUNCTION     0.11     0.12   699.64     0  11:00        0.12
  21577                JUNCTION     0.09     0.10   695.28     0  11:00        0.10
  21578                JUNCTION     0.08     0.09   679.55     0  11:00        0.09
  21579                JUNCTION     0.05     0.06   681.51     0  10:27        0.06
  21580                JUNCTION     0.02     0.03   604.37     0  10:40        0.03
  21582                JUNCTION     0.13     0.15   654.03     0  11:00        0.15
  21583                JUNCTION     0.08     0.09   576.40     1  08:00        0.09
  21584                JUNCTION     0.15     0.16   545.46     1  08:00        0.16
  21585                JUNCTION     0.38     0.43   544.93     0  08:06        0.43
  21586                JUNCTION     0.44     0.50   535.46     0  08:07        0.50
  21587                JUNCTION     0.50     0.56   501.44     0  08:14        0.56
  21588                JUNCTION     0.61     0.69   498.60     0  08:14        0.69
  21593                JUNCTION     0.10     0.11   647.21     0  11:00        0.11
  21594                JUNCTION     0.10     0.12   645.92     0  11:00        0.12
  21597                JUNCTION     0.12     0.14   644.61     0  11:00        0.14
  21598                JUNCTION     0.11     0.12   639.04     0  11:00        0.12
  21599                JUNCTION     0.05     0.06   652.43     0  10:12        0.06
  21600                JUNCTION     0.20     0.23   516.78     0  11:00        0.23
  21601                JUNCTION     0.20     0.23   504.05     0  11:00        0.23
  21603                JUNCTION     0.06     0.07   466.50     1  11:00        0.07
  21605                JUNCTION     0.03     0.03   524.22     0  10:58        0.03
  21607                JUNCTION     0.07     0.08   488.33     0  11:00        0.08
  21609                JUNCTION     0.07     0.07   459.86     0  11:00        0.07
  21610                JUNCTION     0.07     0.08   466.03     0  11:00        0.08
  21611                JUNCTION     1.00     1.14   451.10     1  12:24        1.14
  21612                JUNCTION     0.04     0.05   479.64     0  11:00        0.05
  21613                JUNCTION     0.06     0.07   477.66     0  11:00        0.07
  21614                JUNCTION     0.27     0.31   494.25     0  11:00        0.31
  21615                JUNCTION     0.76     0.86   482.77     0  08:21        0.86
  21616                JUNCTION     0.68     0.76   483.65     0  08:19        0.76
  21617                JUNCTION     0.17     0.18   467.28     0  11:00        0.18
  21618                JUNCTION     0.98     1.12   452.01     1  12:22        1.12
  21620                JUNCTION     0.07     0.09   463.94     1  10:50        0.09
  21623                JUNCTION     0.12     0.14   462.67     0  11:00        0.14
  21625                JUNCTION     1.06     1.20   456.95     1  12:07        1.20
  21626                JUNCTION     0.95     1.07   455.35     1  12:11        1.07
  21634                JUNCTION     0.24     0.25   501.65     0  12:37        0.25
  21638                JUNCTION     0.08     0.08   524.95     0  00:03        0.08
  21641                JUNCTION     0.16     0.16   511.02     1  13:00        0.16
  21642                JUNCTION     0.16     0.17   509.37     0  12:47        0.17
  21643                JUNCTION     0.04     0.05   508.02     1  13:00        0.05
  21644                JUNCTION     0.05     0.05   506.91     1  13:00        0.05
  21645                JUNCTION     0.04     0.04   508.20     1  13:00        0.04
  21646                JUNCTION     0.11     0.11   513.57     1  13:00        0.11
  21647                JUNCTION     0.12     0.12   514.93     1  13:00        0.12
  21649                JUNCTION     0.08     0.08   520.93     0  00:07        0.08
  21650                JUNCTION     0.09     0.09   520.55     0  00:07        0.09
  21651                JUNCTION     0.06     0.06   519.88     0  00:08        0.06
  21675                JUNCTION     0.07     0.08   513.21     1  08:00        0.08
  21676                JUNCTION     0.35     0.38   512.23     0  10:47        0.38
  21677                JUNCTION     0.13     0.13   515.42     1  08:00        0.13
  21679                JUNCTION     0.02     0.02   518.00     0  02:01        0.02
  21681                JUNCTION     0.03     0.04   518.55     0  00:10        0.04
  21683                JUNCTION     0.11     0.11   512.11     1  08:00        0.11
  21684                JUNCTION     0.03     0.03   513.38     1  02:41        0.03
  21686                JUNCTION     0.12     0.12   511.71     1  08:00        0.12
  21689                JUNCTION     0.07     0.07   507.07     0  07:50        0.07
  21694                JUNCTION     0.14     0.15   510.14     1  08:00        0.15
  21695                JUNCTION     0.10     0.11   509.79     1  08:00        0.11
  21697                JUNCTION     0.29     0.31   515.62     0  11:20        0.31
  21698                JUNCTION     0.38     0.40   513.36     0  11:21        0.40
  21699                JUNCTION     0.15     0.16   504.66     1  08:00        0.16
  21700                JUNCTION     0.17     0.18   496.71     1  08:00        0.18
  21702                JUNCTION     0.20     0.21   495.39     1  08:00        0.21
  21703                JUNCTION     0.13     0.14   493.92     1  08:00        0.14
  21704                JUNCTION     0.34     0.41   516.66     0  14:16        0.40
  21707                JUNCTION     0.29     0.64   518.64     1  15:55        0.62
  21710                JUNCTION     0.05     0.05   514.55     0  01:31        0.05
  21719                JUNCTION     0.07     0.07   513.07     1  13:00        0.07
  21721                JUNCTION     0.08     0.08   511.75     1  13:00        0.08
  21724                JUNCTION     0.03     0.04   511.73     1  13:00        0.04
  21725                JUNCTION     0.10     0.10   510.16     1  13:00        0.10
  21728                JUNCTION     0.12     0.13   509.37     1  13:00        0.13
  21729                JUNCTION     0.03     0.03   523.03     1  12:51        0.03
  21731                JUNCTION     0.12     0.13   508.05     1  13:00        0.13
  21732                JUNCTION     0.13     0.14   507.30     1  13:00        0.14
  21738                JUNCTION     0.08     0.08   527.48     0  12:45        0.08
  21739                JUNCTION     0.06     0.07   505.79     1  13:00        0.07
  21740                JUNCTION     0.12     0.13   501.95     1  13:00        0.13
  21741                JUNCTION     0.12     0.13   499.49     1  13:00        0.13
  21744                JUNCTION     0.13     0.14   498.00     1  13:00        0.14
  21745                JUNCTION     0.02     0.03   528.01     0  00:04        0.03
  21747                JUNCTION     0.06     0.06   528.92     0  12:33        0.06
  21748                JUNCTION     0.04     0.05   537.55     0  12:21        0.05
  21749                JUNCTION     0.06     0.07   539.43     0  12:10        0.07
  21755                JUNCTION     0.13     0.14   497.87     1  13:00        0.14
  21756                JUNCTION     0.16     0.18   497.26     1  13:00        0.18
  21757                JUNCTION     0.29     0.31   497.08     0  12:59        0.31
  21758                JUNCTION     0.19     0.20   497.86     1  13:00        0.20
  21759                JUNCTION     0.02     0.02   538.71     0  12:45        0.02
  21760                JUNCTION     0.04     0.04   537.49     1  13:00        0.04
  21765                JUNCTION     0.15     0.15   499.27     0  12:41        0.15
  21766                JUNCTION     0.25     0.27   500.67     0  12:39        0.27
  21767                JUNCTION     0.16     0.17   498.52     1  13:00        0.17
  21768                JUNCTION     0.06     0.06   525.32     1  13:00        0.06
  21769                JUNCTION     0.07     0.07   531.73     1  13:00        0.07
  21770                JUNCTION     0.11     0.12   533.06     1  13:00        0.12
  21771                JUNCTION     0.06     0.07   534.71     1  13:00        0.07
  21773                JUNCTION     0.06     0.06   535.62     1  12:55        0.06
  21781                JUNCTION     0.11     0.12   499.53     1  13:00        0.12
  21782                JUNCTION     0.10     0.11   500.78     1  13:00        0.11
  21785                JUNCTION     0.23     0.26   502.66     0  12:51        0.26
  21786                JUNCTION     0.09     0.09   501.38     1  13:00        0.09
  21795                JUNCTION     0.07     0.08   502.77     1  13:00        0.08
  21796                JUNCTION     0.07     0.08   501.46     1  13:00        0.08
  21797                JUNCTION     0.23     0.27   503.67     0  12:48        0.27
  21800                JUNCTION     0.05     0.05   503.69     1  13:00        0.05
  21801                JUNCTION     0.23     0.30   504.54     0  12:46        0.30
  21803                JUNCTION     0.10     0.11   504.90     1  12:51        0.11
  21804                JUNCTION     0.03     0.03   504.69     1  13:00        0.03
  21807                JUNCTION     0.20     0.27   504.90     1  12:32        0.27
  21808                JUNCTION     0.07     0.08   506.47     1  13:00        0.08
  21809                JUNCTION     0.10     0.14   505.44     1  12:49        0.14
  21811                JUNCTION     0.11     0.12   508.32     1  12:46        0.12
  21814                JUNCTION     0.08     0.09   506.62     1  13:00        0.09
  21817                JUNCTION     0.06     0.07   506.74     1  13:00        0.07
  21819                JUNCTION     0.03     0.03   509.38     1  13:00        0.03
  21824                JUNCTION     0.34     0.39   521.29     0  14:00        0.39
  21825                JUNCTION     0.42     0.48   520.78     0  14:00        0.48
  21826                JUNCTION     0.46     0.53   520.15     0  14:00        0.53
  21827                JUNCTION     0.50     0.58   521.93     0  14:04        0.58
  21828                JUNCTION     0.33     0.38   537.26     0  14:00        0.38
  21829                JUNCTION     0.32     0.37   534.85     0  14:00        0.37
  21830                JUNCTION     0.42     0.49   530.89     0  14:00        0.49
  21831                JUNCTION     0.47     0.54   529.92     0  14:00        0.54
  21832                JUNCTION     0.24     0.28   529.30     0  14:01        0.28
  21834                JUNCTION     0.40     0.46   522.86     0  14:02        0.46
  21839                JUNCTION     0.07     0.08   525.23     1  13:59        0.08
  21841                JUNCTION     0.22     0.25   519.08     0  14:01        0.25
  21854                JUNCTION     0.09     0.09   465.25     0  12:23        0.09
  21855                JUNCTION     0.18     0.18   464.87     0  12:24        0.18
  21875                JUNCTION     0.17     0.19   526.71     1  13:59        0.19
  21876                JUNCTION     0.22     0.25   504.43     0  14:01        0.25
  21881                JUNCTION     0.30     0.35   489.16     0  14:02        0.35
  21882                JUNCTION     0.07     0.07   487.76     0  00:13        0.07
  21883                JUNCTION     0.30     0.34   487.17     0  14:02        0.34
  21884                JUNCTION     0.07     0.07   489.54     0  00:06        0.07
  21886                JUNCTION     0.44     0.50   485.39     0  14:03        0.50
  21887                JUNCTION     0.15     0.17   479.37     0  14:04        0.17
  21888                JUNCTION     0.41     0.46   472.86     0  14:04        0.46
  21889                JUNCTION     0.41     0.47   472.06     0  14:05        0.47
  21890                JUNCTION     0.46     0.53   471.98     0  14:06        0.53
  21891                JUNCTION     0.17     0.19   470.90     0  14:06        0.19
  21894                JUNCTION     0.01     0.01   510.01     1  13:00        0.01
  21895                JUNCTION     0.05     0.06   520.12     0  00:04        0.06
  21897                JUNCTION     0.21     0.26   748.96     1  07:49        0.26
  21899                JUNCTION     0.05     0.05   761.07     0  07:13        0.05
  21900                JUNCTION     0.17     0.24   750.65     1  07:47        0.24
  21901                JUNCTION     0.17     0.26   751.41     1  07:45        0.25
  21902                JUNCTION     0.17     0.28   752.55     1  07:43        0.28
  21903                JUNCTION     0.15     0.31   753.78     1  07:42        0.31
  21918                JUNCTION     0.08     0.15   755.11     1  07:41        0.15
  21919                JUNCTION     0.18     0.33   754.93     0  07:03        0.33
  21920                JUNCTION     0.13     0.22   752.84     1  07:32        0.22
  21921                JUNCTION     0.22     0.34   746.16     1  08:03        0.34
  21923                JUNCTION     0.22     0.30   744.45     1  08:04        0.30
  21924                JUNCTION     0.25     0.32   742.66     0  07:41        0.31
  21927                JUNCTION     0.04     0.05   743.12     1  07:30        0.05
  21928                JUNCTION     0.16     0.19   741.31     0  07:42        0.19
  21929                JUNCTION     0.21     0.26   733.68     0  07:43        0.26
  21930                JUNCTION     0.18     0.21   730.22     0  07:45        0.21
  21931                JUNCTION     0.29     0.34   723.86     0  07:47        0.33
  21932                JUNCTION     0.05     0.06   728.11     0  07:40        0.06
  21935                JUNCTION     0.29     0.34   722.71     0  07:48        0.34
  21936                JUNCTION     0.31     0.36   721.47     0  07:50        0.36
  21938                JUNCTION     0.27     0.31   719.82     0  07:52        0.30
  21946                JUNCTION     0.08     0.09   719.09     1  07:43        0.09
  21947                JUNCTION     0.32     0.36   717.95     0  07:54        0.36
  21948                JUNCTION     0.40     0.46   716.55     0  07:55        0.46
  21952                JUNCTION     0.12     0.13   715.46     0  07:56        0.13
  21953                JUNCTION     0.24     0.27   645.37     0  07:57        0.27
  21954                JUNCTION     0.11     0.12   653.02     1  08:00        0.12
  21955                JUNCTION     0.03     0.04   713.59     0  07:35        0.04
  21960                JUNCTION     0.09     0.09   666.16     1  07:10        0.09
  21961                JUNCTION     0.09     0.10   672.60     1  07:05        0.10
  21962                JUNCTION     0.05     0.05   726.15     0  07:40        0.05
  21963                JUNCTION     0.34     0.38   638.28     0  07:59        0.38
  21964                JUNCTION     0.18     0.20   636.33     0  07:59        0.20
  21965                JUNCTION     0.45     0.52   627.65     1  08:08        0.51
  21966                JUNCTION     0.23     0.26   634.11     1  08:07        0.26
  21967                JUNCTION     0.14     0.15   638.71     1  07:59        0.15
  21968                JUNCTION     0.07     0.07   641.54     1  07:57        0.07
  21969                JUNCTION     0.07     0.07   651.82     0  07:59        0.07
  21970                JUNCTION     0.06     0.07   657.96     0  07:57        0.07
  21971                JUNCTION     0.05     0.05   669.47     1  07:50        0.05
  21972                JUNCTION     0.06     0.07   687.66     1  07:58        0.07
  21973                JUNCTION     0.21     0.25   640.13     1  08:05        0.25
  21974                JUNCTION     0.18     0.21   655.73     1  08:04        0.21
  21975                JUNCTION     0.05     0.06   719.84     0  07:58        0.06
  21976                JUNCTION     0.45     0.52   626.07     1  08:09        0.52
  21977                JUNCTION     0.46     0.53   623.98     1  08:10        0.53
  21978                JUNCTION     0.32     0.36   621.81     1  08:11        0.36
  21979                JUNCTION     0.36     0.40   612.74     1  08:11        0.40
  21980                JUNCTION     0.43     0.48   611.67     1  08:12        0.48
  21981                JUNCTION     0.31     0.35   608.38     1  08:13        0.35
  21982                JUNCTION     0.53     0.61   598.72     1  08:14        0.61
  21983                JUNCTION     0.36     0.41   597.41     1  08:15        0.41
  21984                JUNCTION     0.42     0.47   587.45     1  08:16        0.47
  21985                JUNCTION     0.43     0.49   581.62     1  08:17        0.49
  21986                JUNCTION     0.36     0.41   577.49     1  08:18        0.41
  21987                JUNCTION     0.36     0.40   569.48     1  08:18        0.40
  21988                JUNCTION     0.39     0.43   567.70     1  08:19        0.43
  21989                JUNCTION     0.37     0.41   559.69     1  08:20        0.41
  21992                JUNCTION     0.04     0.05   701.78     0  00:11        0.05
  21993                JUNCTION     0.05     0.05   699.78     1  13:00        0.05
  21994                JUNCTION     0.03     0.04   697.37     1  13:00        0.04
  21995                JUNCTION     0.07     0.07   688.36     1  13:00        0.07
  21998                JUNCTION     0.07     0.08   687.83     1  13:00        0.08
  21999                JUNCTION     0.08     0.08   685.87     1  13:00        0.08
  22007                JUNCTION     0.08     0.09   684.03     1  13:00        0.09
  22011                JUNCTION     0.05     0.06   681.00     1  12:06        0.06
  22012                JUNCTION     0.05     0.05   679.76     0  12:21        0.05
  22013                JUNCTION     0.01     0.02   681.76     1  12:26        0.02
  22014                JUNCTION     0.07     0.08   675.57     0  12:27        0.08
  22015                JUNCTION     0.06     0.07   673.88     1  13:00        0.07
  22017                JUNCTION     0.06     0.07   679.84     1  13:00        0.07
  22019                JUNCTION     0.09     0.10   680.87     1  13:00        0.10
  22020                JUNCTION     0.09     0.10   682.51     1  13:00        0.10
  22021                JUNCTION     0.06     0.07   651.05     1  13:00        0.07
  22022                JUNCTION     0.08     0.09   635.48     1  13:00        0.09
  22023                JUNCTION     0.08     0.09   620.12     1  13:00        0.09
  22024                JUNCTION     0.13     0.15   635.81     1  13:00        0.15
  22025                JUNCTION     0.12     0.14   636.34     1  12:54        0.14
  22026                JUNCTION     0.05     0.05   662.95     0  12:06        0.05
  22028                JUNCTION     0.05     0.06   681.17     0  12:03        0.06
  22031                JUNCTION     0.16     0.18   588.02     1  13:00        0.18
  22032                JUNCTION     0.07     0.07   602.96     1  13:00        0.07
  22033                JUNCTION     0.07     0.07   608.03     1  13:00        0.07
  22034                JUNCTION     0.01     0.01   615.44     0  00:49        0.01
  22035                JUNCTION     0.05     0.06   630.94     1  13:00        0.06
  22036                JUNCTION     0.07     0.07   639.77     1  13:00        0.07
  22037                JUNCTION     0.01     0.01   669.91     1  12:43        0.01
  22038                JUNCTION     0.05     0.06   663.86     1  13:00        0.06
  22039                JUNCTION     0.03     0.03   676.01     1  13:00        0.03
  22040                JUNCTION     0.02     0.02   688.63     0  01:02        0.02
  22041                JUNCTION     0.08     0.09   664.73     1  13:00        0.09
  22042                JUNCTION     0.04     0.04   665.40     1  12:47        0.04
  22043                JUNCTION     0.01     0.01   626.69     0  17:00        0.01
  22055                JUNCTION     0.40     0.45   552.34     1  08:21        0.45
  22056                JUNCTION     0.02     0.02   683.97     1  04:19        0.02
  22057                JUNCTION     0.02     0.02   682.89     1  13:00        0.02
  22058                JUNCTION     0.01     0.01   689.17     0  00:05        0.01
  22059                JUNCTION     0.02     0.02   664.28     0  00:06        0.02
  22060                JUNCTION     0.05     0.06   666.12     1  13:00        0.06
  22061                JUNCTION     0.02     0.02   667.45     1  03:33        0.02
  22062                JUNCTION     0.02     0.02   667.39     0  03:06        0.02
  22063                JUNCTION     0.10     0.12   583.66     1  13:00        0.12
  22064                JUNCTION     0.11     0.12   567.73     1  13:00        0.12
  22065                JUNCTION     0.13     0.15   559.96     1  13:00        0.15
  22066                JUNCTION     0.12     0.14   552.25     1  13:00        0.14
  22067                JUNCTION     0.12     0.13   540.29     1  13:00        0.13
  22070                JUNCTION     0.22     0.24   526.84     1  13:00        0.24
  22071                JUNCTION     0.20     0.23   525.81     1  13:00        0.23
  22078                JUNCTION     0.12     0.13   512.19     0  11:00        0.13
  22081                JUNCTION     0.07     0.07   522.57     0  11:00        0.07
  22083                JUNCTION     0.10     0.12   523.43     0  11:00        0.12
  22084                JUNCTION     0.03     0.03   538.16     0  11:00        0.03
  22086                JUNCTION     0.02     0.02   551.22     0  11:00        0.02
  22088                JUNCTION     0.01     0.01   583.75     0  11:00        0.01
  22090                JUNCTION     0.05     0.05   584.17     0  11:00        0.05
  22094                JUNCTION     0.04     0.04   545.98     0  00:03        0.04
  22097                JUNCTION     0.23     0.26   524.46     1  13:00        0.26
  22098                JUNCTION     0.03     0.03   533.33     0  10:51        0.03
  22100                JUNCTION     0.23     0.26   523.46     1  13:00        0.26
  22103                JUNCTION     0.23     0.26   522.46     1  13:00        0.26
  22106                JUNCTION     0.27     0.30   521.50     1  13:00        0.30
  22107                JUNCTION     0.18     0.19   520.81     0  12:00        0.19
  22108                JUNCTION     0.11     0.11   532.75     0  11:00        0.11
  22109                JUNCTION     0.13     0.13   526.38     0  11:00        0.13
  22114                JUNCTION     0.13     0.13   537.02     0  00:21        0.13
  22115                JUNCTION     0.10     0.10   545.60     0  00:20        0.10
  22116                JUNCTION     0.10     0.10   555.09     0  00:12        0.10
  22117                JUNCTION     0.10     0.10   562.09     0  00:10        0.10
  22118                JUNCTION     0.09     0.09   570.59     0  00:06        0.09
  22119                JUNCTION     0.09     0.10   578.93     0  00:03        0.10
  22150                JUNCTION     0.46     0.52   466.93     1  11:57        0.52
  22151                JUNCTION     0.99     1.12   464.12     1  11:58        1.12
  22152                JUNCTION     0.76     0.87   463.47     1  11:59        0.87
  22154                JUNCTION     0.98     1.12   462.71     1  12:00        1.12
  22155                JUNCTION     0.98     1.11   462.24     1  12:01        1.11
  22157                JUNCTION     0.99     1.12   461.33     0  11:59        1.12
  22162                JUNCTION     0.09     0.11   469.79     0  10:49        0.11
  22163                JUNCTION     0.09     0.11   472.69     1  10:45        0.11
  22164                JUNCTION     0.14     0.17   473.41     1  10:43        0.17
  22165                JUNCTION     0.13     0.15   474.16     0  10:38        0.15
  22167                JUNCTION     0.13     0.15   474.52     0  10:35        0.15
  22168                JUNCTION     0.13     0.16   475.53     0  10:26        0.16
  22173                JUNCTION     0.07     0.09   484.61     0  11:00        0.09
  22174                JUNCTION     0.09     0.11   477.19     0  11:00        0.11
  22181                JUNCTION     0.01     0.01   477.39     0  10:40        0.01
  22185                JUNCTION     0.14     0.17   485.84     0  10:25        0.17
  22186                JUNCTION     0.37     0.42   478.62     0  12:00        0.42
  22188                JUNCTION     0.65     0.78   468.75     1  10:15        0.77
  22197                JUNCTION     0.07     0.08   551.80     0  10:13        0.08
  22199                JUNCTION     0.05     0.06   542.06     0  10:19        0.06
  22203                JUNCTION     0.18     0.20   522.00     0  11:00        0.20
  22206                JUNCTION     0.05     0.05   506.26     1  10:10        0.05
  22207                JUNCTION     0.17     0.18   501.18     0  12:00        0.18
  22208                JUNCTION     0.01     0.01   552.13     1  10:59        0.01
  22211                JUNCTION     0.02     0.02   546.02     0  11:00        0.02
  22212                JUNCTION     0.02     0.02   533.67     0  11:00        0.02
  22213                JUNCTION     0.17     0.20   521.29     0  09:27        0.20
  22214                JUNCTION     0.20     0.22   514.22     0  12:00        0.22
  22215                JUNCTION     0.18     0.20   489.85     0  12:00        0.20
  22218                JUNCTION     0.27     0.30   489.24     0  12:00        0.30
  22219                JUNCTION     0.28     0.31   488.79     0  12:00        0.31
  22220                JUNCTION     0.30     0.33   488.04     0  12:00        0.33
  22223                JUNCTION     0.31     0.34   486.70     0  12:00        0.34
  22229                JUNCTION     0.13     0.15   486.87     0  10:57        0.15
  22233                JUNCTION     0.12     0.15   487.71     0  10:45        0.15
  22236                JUNCTION     0.12     0.14   488.39     1  10:29        0.14
  22238                JUNCTION     0.09     0.11   488.48     0  10:10        0.11
  22239                JUNCTION     0.13     0.15   489.25     0  10:05        0.15
  22259                JUNCTION     0.02     0.03   526.03     0  10:23        0.03
  22260                JUNCTION     0.03     0.04   524.04     0  10:17        0.04
  22261                JUNCTION     0.03     0.04   520.04     0  10:34        0.04
  22262                JUNCTION     0.06     0.07   511.17     0  11:00        0.07
  22277                JUNCTION     0.07     0.08   467.85     0  10:42        0.08
  22278                JUNCTION     0.99     1.11   460.74     0  12:01        1.11
  22280                JUNCTION     0.99     1.11   460.68     0  12:01        1.11
  22288                JUNCTION     0.05     0.06   468.38     0  10:57        0.06
  22292                JUNCTION     1.00     1.12   460.14     0  12:02        1.12
  22296                JUNCTION     0.96     1.08   459.71     0  12:03        1.08
  22297                JUNCTION     0.93     1.05   459.24     0  12:04        1.05
  22298                JUNCTION     0.03     0.03   467.73     0  10:34        0.03
  22299                JUNCTION     0.08     0.09   463.26     0  11:00        0.09
  22306                JUNCTION     1.01     1.14   458.88     0  12:05        1.14
  22307                JUNCTION     0.10     0.12   462.07     0  11:00        0.12
  22316                JUNCTION     1.04     1.17   457.78     1  12:04        1.17
  22319                JUNCTION     0.98     1.11   457.56     1  12:05        1.11
  22320                JUNCTION     1.06     1.20   457.12     1  12:06        1.20
  22321                JUNCTION     0.03     0.04   465.79     0  11:00        0.04
  22324                JUNCTION     0.03     0.04   474.00     0  11:00        0.04
  22325                JUNCTION     0.08     0.09   472.79     0  11:00        0.09
  22326                JUNCTION     0.08     0.10   471.70     0  11:00        0.10
  22327                JUNCTION     0.09     0.10   469.30     0  11:00        0.10
  22329                JUNCTION     0.34     0.40   472.17     0  12:01        0.40
  22336                JUNCTION     0.06     0.07   467.07     0  11:00        0.07
  22337                JUNCTION     0.10     0.12   465.69     0  11:00        0.12
  22338                JUNCTION     0.12     0.14   465.26     0  11:00        0.14
  22340                JUNCTION     0.10     0.11   464.31     0  11:00        0.11
  22341                JUNCTION     0.22     0.26   467.43     0  11:00        0.26
  22342                JUNCTION     0.14     0.16   462.99     0  11:00        0.16
  22343                JUNCTION     0.15     0.17   460.61     0  11:00        0.17
  22344                JUNCTION     0.16     0.19   459.53     0  11:00        0.19
  22350                JUNCTION     0.09     0.10   468.93     0  11:00        0.10
  22356                JUNCTION     0.14     0.15   477.21     0  11:00        0.15
  22358                JUNCTION     0.06     0.06   493.91     0  11:00        0.06
  22362                JUNCTION     0.62     0.71   454.87     1  12:11        0.71
  22363                JUNCTION     1.13     1.28   453.31     0  12:14        1.28
  22365                JUNCTION     0.03     0.04   460.34     0  10:54        0.04
  22367                JUNCTION     0.05     0.05   471.54     0  11:00        0.05
  22368                JUNCTION     0.03     0.03   474.63     0  11:00        0.03
  22369                JUNCTION     0.03     0.03   480.96     1  10:31        0.03
  22370                JUNCTION     0.69     0.77   465.32     1  11:13        0.77
  22371                JUNCTION     0.40     0.44   474.17     1  09:57        0.44
  22372                JUNCTION     0.59     0.66   476.45     1  09:56        0.66
  22373                JUNCTION     0.25     0.29   482.48     0  11:00        0.29
  22375                JUNCTION     0.08     0.09   483.88     0  11:00        0.09
  22376                JUNCTION     0.08     0.09   485.28     0  11:00        0.09
  22377                JUNCTION     0.08     0.09   486.77     0  11:00        0.09
  22378                JUNCTION     0.05     0.05   496.06     0  11:00        0.05
  22383                JUNCTION     0.22     0.23   477.04     0  11:00        0.23
  22384                JUNCTION     0.18     0.18   478.36     0  11:00        0.18
  22385                JUNCTION     0.11     0.12   477.41     0  11:00        0.12
  22386                JUNCTION     0.13     0.14   478.57     0  11:00        0.14
  22389                JUNCTION     0.20     0.23   530.09     0  11:00        0.23
  22390                JUNCTION     0.08     0.09   622.11     0  11:00        0.09
  22391                JUNCTION     0.21     0.25   645.19     0  11:00        0.25
  22392                JUNCTION     0.05     0.06   649.32     0  11:00        0.06
  22400                JUNCTION     0.14     0.16   652.60     0  11:00        0.16
  22401                JUNCTION     0.11     0.13   662.13     0  11:00        0.13
  22402                JUNCTION     0.07     0.08   683.09     0  11:00        0.08
  22411                JUNCTION     0.02     0.03   703.19     1  10:37        0.03
  22417                JUNCTION     0.08     0.09   708.30     1  10:56        0.09
  22425                JUNCTION     0.10     0.12   672.04     1  10:00        0.12
  22426                JUNCTION     0.06     0.07   670.07     1  10:00        0.07
  22427                JUNCTION     0.05     0.06   650.93     1  10:00        0.06
  22428                JUNCTION     0.16     0.17   530.03     1  10:00        0.17
  22431                JUNCTION     0.68     0.76   477.99     0  08:24        0.76
  22432                JUNCTION     0.39     0.44   481.55     0  08:22        0.44
  22433                JUNCTION     0.55     0.62   485.18     0  08:18        0.62
  22434                JUNCTION     0.41     0.45   491.08     0  08:16        0.45
  22435                JUNCTION     0.40     0.44   497.67     0  08:15        0.44
  22436                JUNCTION     0.40     0.44   509.02     0  08:13        0.44
  22437                JUNCTION     0.40     0.45   516.45     0  08:11        0.45
  22438                JUNCTION     0.36     0.40   528.40     1  08:25        0.40
  22439                JUNCTION     0.50     0.56   523.90     0  08:10        0.56
  22440                JUNCTION     0.24     0.26   528.96     1  10:00        0.26
  22441                JUNCTION     0.16     0.17   703.33     1  08:00        0.17
  22442                JUNCTION     0.12     0.13   704.59     1  08:00        0.13
  22443                JUNCTION     0.08     0.08   702.36     1  08:00        0.08
  22530                JUNCTION     0.09     0.10   512.40     1  10:48        0.10
  22531                JUNCTION     0.11     0.12   506.96     0  11:00        0.12
  22532                JUNCTION     0.03     0.03   512.93     1  10:43        0.03
  22534                JUNCTION     0.03     0.03   518.13     0  10:40        0.03
  22539                JUNCTION     0.03     0.03   519.42     1  10:59        0.03
  22541                JUNCTION     0.11     0.12   503.24     0  11:00        0.12
  22543                JUNCTION     0.04     0.05   507.03     0  10:59        0.05
  22544                JUNCTION     0.11     0.12   500.43     0  11:00        0.12
  22545                JUNCTION     0.09     0.10   491.96     0  11:00        0.10
  22546                JUNCTION     0.04     0.04   506.04     0  10:47        0.04
  22547                JUNCTION     0.16     0.17   474.00     0  11:00        0.17
  22548                JUNCTION     0.18     0.20   462.88     0  11:00        0.20
  22549                JUNCTION     0.20     0.22   461.65     0  11:00        0.22
  22550                JUNCTION     0.66     0.73   458.39     0  11:04        0.73
  22551                JUNCTION     0.42     0.47   457.09     0  11:05        0.47
  22552                JUNCTION     0.50     0.56   453.72     0  11:07        0.56
  22553                JUNCTION     0.04     0.05   470.05     0  10:40        0.05
  22557                JUNCTION     0.64     0.71   451.82     0  11:08        0.71
  22558                JUNCTION     0.66     0.74   451.07     0  11:11        0.74
  22559                JUNCTION     0.71     0.80   450.13     0  11:13        0.80
  22561                JUNCTION     0.72     0.80   449.67     0  11:15        0.80
  22562                JUNCTION     0.07     0.08   454.00     0  11:00        0.08
  22563                JUNCTION     0.07     0.07   454.40     0  11:00        0.07
  22564                JUNCTION     0.07     0.07   456.46     1  11:00        0.07
  22566                JUNCTION     0.43     0.48   448.84     0  11:15        0.48
  22568                JUNCTION     0.48     0.54   445.61     0  11:16        0.54
  22569                JUNCTION     0.49     0.54   458.80     0  11:08        0.54
  22570                JUNCTION     0.60     0.67   459.77     0  11:08        0.67
  22571                JUNCTION     0.62     0.69   461.49     0  11:05        0.69
  22572                JUNCTION     0.55     0.62   459.80     0  11:07        0.62
  22573                JUNCTION     0.60     0.67   462.28     0  11:03        0.67
  22574                JUNCTION     0.27     0.33   459.77     0  11:07        0.33
  22576                JUNCTION     0.08     0.09   464.10     0  10:52        0.09
  22580                JUNCTION     0.61     0.68   463.31     0  11:00        0.68
  22583                JUNCTION     0.60     0.67   464.32     0  11:00        0.67
  22594                JUNCTION     0.44     0.49   507.60     0  11:00        0.49
  22595                JUNCTION     0.22     0.25   506.69     0  11:00        0.25
  22596                JUNCTION     0.39     0.44   508.14     0  11:00        0.44
  22597                JUNCTION     0.46     0.51   509.01     0  11:00        0.51
  22598                JUNCTION     0.35     0.39   509.13     0  11:00        0.39
  22599                JUNCTION     0.42     0.47   510.26     0  11:00        0.47
  22601                JUNCTION     0.16     0.17   510.03     0  11:00        0.17
  22602                JUNCTION     0.10     0.10   510.83     0  10:12        0.10
  22603                JUNCTION     0.10     0.10   511.58     1  09:04        0.10
  22604                JUNCTION     0.07     0.07   512.87     0  10:46        0.07
  22611                JUNCTION     0.54     1.17   500.94     1  00:28        1.17
  22612                JUNCTION     0.53     1.07   499.53     1  11:38        1.07
  22614                JUNCTION     0.39     0.66   498.41     0  11:18        0.66
  22617                JUNCTION     0.34     0.54   482.25     0  11:19        0.53
  22618                JUNCTION     0.29     0.32   499.26     1  11:28        0.32
  22619                JUNCTION     0.18     0.19   505.93     1  11:13        0.19
  22620                JUNCTION     0.41     0.43   506.97     1  11:12        0.43
  22621                JUNCTION     0.03     0.03   518.77     0  03:08        0.03
  22622                JUNCTION     0.06     0.07   518.16     1  08:00        0.07
  22626                JUNCTION     0.10     0.10   491.19     0  11:00        0.10
  22638                JUNCTION     0.14     0.15   466.18     0  11:18        0.15
  22639                JUNCTION     0.24     0.26   460.69     0  11:19        0.26
  22643                JUNCTION     0.04     0.04   470.12     1  02:30        0.04
  22645                JUNCTION     0.11     0.13   463.58     0  10:34        0.13
  22651                JUNCTION     0.24     0.26   467.46     0  11:15        0.26
  22653                JUNCTION     0.31     0.37   459.75     0  11:00        0.37
  22654                JUNCTION     0.57     0.64   454.49     1  11:42        0.64
  22655                JUNCTION     0.05     0.05   458.42     0  11:00        0.05
  22658                JUNCTION     0.20     0.22   469.08     0  11:06        0.22
  22659                JUNCTION     0.21     0.23   468.09     0  11:10        0.23
  22660                JUNCTION     0.18     0.20   469.89     0  11:01        0.20
[...]
  743                     1.00   0.00  0.00  0.00  0.00  0.00  0.00  1.00  0.00  0.00
  755                     1.00   0.00  0.00  0.00  0.00  1.00  0.00  0.00  1.00  0.00
  756                     1.00   0.00  0.00  0.00  1.00  0.00  0.00  0.00  1.00  0.00
  757                     1.00   0.00  0.00  0.00  0.00  0.00  0.00  1.00  0.00  0.00
  758                     1.00   0.00  0.00  0.00  0.99  0.01  0.00  0.00  1.00  0.00
  759                     1.00   0.00  0.00  0.00  0.00  1.00  0.00  0.00  0.00  0.00
  763                     1.00   0.00  0.00  0.00  0.99  0.01  0.00  0.00  1.00  0.00
  764                     1.00   0.00  0.00  0.00  0.00  1.00  0.00  0.00  1.00  0.00
  765                     1.00   0.00  0.00  0.00  0.01  0.99  0.00  0.00  0.00  0.00
  77                      1.00   0.00  0.00  0.00  0.00  0.00  0.00  1.00  0.00  0.00
  770                     1.00   0.00  0.00  0.00  1.00  0.00  0.00  0.00  0.00  0.00
  772                     1.00   0.00  0.00  0.00  1.00  0.00  0.00  0.00  1.00  0.00
  774                     2.42   0.00  0.00  0.00  1.00  0.00  0.00  0.00  1.00  0.00
  775                     1.00   0.00  0.00  0.00  1.00  0.00  0.00  0.00  0.01  0.00
  776                     1.00   0.00  0.00  0.00  0.99  0.01  0.00  0.00  0.99  0.00
  777                     1.00   0.00  0.00  0.00  1.00  0.00  0.00  0.00  1.00  0.00
  778                     1.00   0.00  0.00  0.00  1.00  0.00  0.00  0.00  0.00  0.00
  779                     1.00   0.00  0.00  0.00  1.00  0.00  0.00  0.00  1.00  0.00
  78                      1.00   0.00  0.00  0.00  0.00  0.00  0.00  1.00  0.00  0.00
  780                     1.00   0.00  0.03  0.00  0.97  0.00  0.00  0.00  0.97  0.00
  781                     1.00   0.00  0.00  0.00  1.00  0.00  0.00  0.00  0.00  0.00
  791                     1.00   0.00  0.00  0.00  0.00  1.00  0.00  0.00  0.00  0.00
  793                     1.00   0.00  0.00  0.00  1.00  0.00  0.00  0.00  1.00  0.00
  794                     1.00   0.00  0.00  0.00  1.00  0.00  0.00  0.00  1.00  0.00
  795                     1.00   0.00  0.00  0.00  1.00  0.00  0.00  0.00  0.00  0.00
  796                     1.00   0.00  0.00  0.00  1.00  0.00  0.00  0.00  1.00  0.00
  797                     1.00   0.00  0.00  0.00  1.00  0.00  0.00  0.00  0.99  0.00
  798                     1.00   0.00  0.00  0.00  1.00  0.00  0.00  0.00  0.00  0.00
  799                     1.00   0.00  0.00  0.00  1.00  0.00  0.00  0.00  1.00  0.00
  8                       1.00   0.00  0.00  0.00  1.00  0.00  0.00  0.00  1.00  0.00
  800                     1.00   0.00  0.00  0.00  1.00  0.00  0.00  0.00  1.00  0.00
  803                     1.00   0.00  0.00  0.00  1.00  0.00  0.00  0.00  0.00  0.00
  804                     3.72   0.00  0.00  0.00  0.97  0.03  0.00  0.00  1.00  0.00
  805                     1.00   0.00  0.00  0.00  0.00  1.00  0.00  0.00  0.00  0.00
  806                     1.00   0.00  0.00  0.00  1.00  0.00  0.00  0.00  1.00  0.00
  807                     1.00   0.00  0.00  0.00  1.00  0.00  0.00  0.00  1.00  0.00
  808                     1.00   0.00  0.00  0.00  1.00  0.00  0.00  0.00  1.00  0.00
  809                     1.00   0.00  0.00  0.00  1.00  0.00  0.00  0.00  0.99  0.00
  81                      1.00   0.00  0.00  0.00  1.00  0.00  0.00  0.00  0.99  0.00
  810                     2.73   0.00  0.00  0.00  1.00  0.00  0.00  0.00  0.00  0.00
  812                     1.00   0.00  0.00  0.00  0.00  0.00  0.00  1.00  0.00  0.00
  813                     1.00   0.00  0.00  0.00  0.00  0.00  0.00  1.00  0.00  0.00
  821                     1.00   0.00  0.00  0.00  1.00  0.00  0.00  0.00  0.00  0.00
  828                     1.00   0.00  0.00  0.00  1.00  0.00  0.00  0.00  1.00  0.00
  829                     1.00   0.00  0.00  0.00  1.00  0.00  0.00  0.00  0.01  0.00
  833                     1.00   0.00  0.00  0.00  1.00  0.00  0.00  0.00  1.00  0.00
  834                     1.00   0.00  0.00  0.00  1.00  0.00  0.00  0.00  1.00  0.00
  835                     1.00   0.00  0.00  0.00  1.00  0.00  0.00  0.00  1.00  0.00
  836                     1.00   0.00  0.00  0.00  1.00  0.00  0.00  0.00  1.00  0.00
  837                     1.00   0.00  0.00  0.00  1.00  0.00  0.00  0.00  0.99  0.00
  842                     1.00   0.00  0.00  0.00  1.00  0.00  0.00  0.00  1.00  0.00
  843                     1.00   0.00  0.00  0.00  1.00  0.00  0.00  0.00  0.99  0.00
  844                     1.00   0.00  0.00  0.00  1.00  0.00  0.00  0.00  1.00  0.00
  845                     1.00   0.00  0.00  0.00  0.00  0.00  0.00  1.00  0.00  0.00
  848                     1.00   0.00  0.00  0.00  1.00  0.00  0.00  0.00  1.00  0.00
  849                     1.00   0.00  0.00  0.00  1.00  0.00  0.00  0.00  0.99  0.00
  850                     1.00   0.00  0.00  0.00  1.00  0.00  0.00  0.00  0.99  0.00
  851                     1.00   0.00  0.00  0.00  1.00  0.00  0.00  0.00  0.00  0.00
  852                     1.00   0.00  0.00  0.00  1.00  0.00  0.00  0.00  1.00  0.00
  853                     1.00   0.00  0.00  0.00  1.00  0.00  0.00  0.00  0.00  0.00
  857                     1.00   0.00  0.00  0.00  1.00  0.00  0.00  0.00  1.00  0.00
  86                      1.49   0.00  0.00  0.00  0.00  1.00  0.00  0.00  1.00  0.00
  860                     1.15   0.00  0.00  0.00  1.00  0.00  0.00  0.00  0.00  0.00
  861                     1.00   0.00  0.00  0.00  1.00  0.00  0.00  0.00  1.00  0.00
  862                     1.00   0.00  0.00  0.00  1.00  0.00  0.00  0.00  0.00  0.00
  863                     1.41   0.00  0.00  0.00  0.00  0.00  0.00  1.00  0.00  0.00
  88                      1.00   0.00  0.00  0.00  1.00  0.00  0.00  0.00  0.08  0.00
  9                       1.00   0.00  0.00  0.00  1.00  0.00  0.00  0.00  1.00  0.00
  901                     1.00   0.00  0.00  0.00  0.00  0.00  0.00  1.00  0.00  0.00
  902                     1.00   0.00  0.00  0.00  1.00  0.00  0.00  0.00  1.00  0.00
  903                     1.00   0.00  0.00  0.00  1.00  0.00  0.00  0.00  0.00  0.00
  904                     1.00   0.00  0.00  0.00  1.00  0.00  0.00  0.00  1.00  0.00
  913                     1.00   0.00  0.00  0.00  1.00  0.00  0.00  0.00  1.00  0.00
  914                     1.00   0.00  0.00  0.00  1.00  0.00  0.00  0.00  0.01  0.00
  915                     1.00   0.00  0.00  0.00  1.00  0.00  0.00  0.00  1.00  0.00
  918                     1.00   0.00  0.00  0.00  1.00  0.00  0.00  0.00  1.00  0.00
  919                     1.00   0.00  0.00  0.00  1.00  0.00  0.00  0.00  1.00  0.00
  920                     1.00   0.00  0.00  0.00  1.00  0.00  0.00  0.00  1.00  0.00
  921                     1.00   0.00  0.00  0.00  1.00  0.00  0.00  0.00  1.00  0.00
  922                     1.00   0.00  0.00  0.00  1.00  0.00  0.00  0.00  0.99  0.00
  923                     1.00   0.00  0.00  0.00  1.00  0.00  0.00  0.00  1.00  0.00
  933                     1.00   0.00  0.00  0.00  1.00  0.00  0.00  0.00  0.00  0.00
  934                     1.00   0.00  0.00  0.00  0.00  0.00  0.00  1.00  0.00  0.00
  937                     1.00   0.00  0.00  0.00  1.00  0.00  0.00  0.00  1.00  0.00
  938                     1.00   0.00  0.00  0.00  1.00  0.00  0.00  0.00  0.01  0.00
  939                     1.00   0.00  0.00  0.00  1.00  0.00  0.00  0.00  0.00  0.00
  940                     1.00   0.00  0.00  0.00  1.00  0.00  0.00  0.00  0.01  0.00
  941                     1.00   0.00  0.00  0.00  1.00  0.00  0.00  0.00  1.00  0.00
  944                     1.00   0.00  0.00  0.00  0.00  0.00  0.00  1.00  0.00  0.00
  947                     1.00   0.00  0.00  0.00  1.00  0.00  0.00  0.00  0.99  0.00
  948                     1.07   0.00  0.00  0.00  1.00  0.00  0.00  0.00  1.00  0.00
  949                     1.00   0.00  0.00  0.00  1.00  0.00  0.00  0.00  0.99  0.00
  962                     3.87   0.00  0.00  0.00  0.00  1.00  0.00  0.00  1.00  0.00
  963                     1.00   0.00  0.00  0.00  1.00  0.00  0.00  0.00  0.23  0.00
  964                     1.00   0.00  0.00  0.00  1.00  0.00  0.00  0.00  0.99  0.00
  965                     1.00   0.00  0.00  0.00  1.00  0.00  0.00  0.00  0.99  0.00
  974                     1.00   0.00  0.00  0.00  1.00  0.00  0.00  0.00  1.00  0.00
  975                     1.00   0.00  0.00  0.00  1.00  0.00  0.00  0.00  0.00  0.00
  981                     1.00   0.00  0.00  0.00  1.00  0.00  0.00  0.00  0.99  0.00
  983                     1.00   0.00  0.00  0.00  0.00  0.00  0.00  1.00  0.00  0.00
  985                     1.37   0.00  0.00  0.00  1.00  0.00  0.00  0.00  0.00  0.00
  986                     1.00   0.00  0.00  0.00  1.00  0.00  0.00  0.00  1.00  0.00
  987                     1.00   0.00  0.00  0.00  1.00  0.00  0.00  0.00  1.00  0.00
  988                     1.00   0.00  0.00  0.00  0.00  1.00  0.00  0.00  0.00  0.00
  989                     1.00   0.00  0.00  0.00  0.02  0.98  0.00  0.00  0.25  0.00
  995                     1.00   0.00  0.00  0.00  1.00  0.00  0.00  0.00  1.00  0.00
  CDT-101                 1.00   1.00  0.00  0.00  0.00  0.00  0.00  0.00  0.00  0.00
  CDT-103                 1.00   1.00  0.00  0.00  0.00  0.00  0.00  0.00  0.00  0.00
  CDT-105                 1.00   1.00  0.00  0.00  0.00  0.00  0.00  0.00  0.00  0.00
  CDT-107                49.12   0.00  0.00  0.00  1.00  0.00  0.00  0.00  1.00  0.00
  CDT-11                  1.25   1.00  0.00  0.00  0.00  0.00  0.00  0.00  0.00  0.00
  CDT-13                  1.00   0.00  0.01  0.00  0.24  0.75  0.00  0.00  0.76  0.00
  CDT-15                  1.00   0.00  0.00  0.00  1.00  0.00  0.00  0.00  0.00  0.00
  CDT-17                  1.00   0.00  0.03  0.00  0.00  0.97  0.00  0.00  0.97  0.00
  CDT-19                  1.00   1.00  0.00  0.00  0.00  0.00  0.00  0.00  0.00  0.00
  CDT-21                  1.00   1.00  0.00  0.00  0.00  0.00  0.00  0.00  0.00  0.00
  CDT-23                  1.00   1.00  0.00  0.00  0.00  0.00  0.00  0.00  0.00  0.00
  CDT-25                  1.00   1.00  0.00  0.00  0.00  0.00  0.00  0.00  0.00  0.00
  CDT-27                  1.00   1.00  0.00  0.00  0.00  0.00  0.00  0.00  0.00  0.00
  CDT-29                  1.00   1.00  0.00  0.00  0.00  0.00  0.00  0.00  0.00  0.00
  CDT-31                  1.00   1.00  0.00  0.00  0.00  0.00  0.00  0.00  0.00  0.00
  CDT-33                  1.00   1.00  0.00  0.00  0.00  0.00  0.00  0.00  0.00  0.00
  CDT-35                  1.00   1.00  0.00  0.00  0.00  0.00  0.00  0.00  0.00  0.00
  CDT-37                  1.00   1.00  0.00  0.00  0.00  0.00  0.00  0.00  0.00  0.00
  CDT-39                  2.63   1.00  0.00  0.00  0.00  0.00  0.00  0.00  0.00  0.00
  CDT-41                  1.00   1.00  0.00  0.00  0.00  0.00  0.00  0.00  0.00  0.00
  CDT-43                  1.00   1.00  0.00  0.00  0.00  0.00  0.00  0.00  0.00  0.00
  CDT-45                  1.00   1.00  0.00  0.00  0.00  0.00  0.00  0.00  0.00  0.00
  CDT-47                  1.00   0.00  0.00  0.00  0.00  1.00  0.00  0.00  0.72  0.00
  CDT-49                  3.39   1.00  0.00  0.00  0.00  0.00  0.00  0.00  0.00  0.00
  CDT-51                  1.00   1.00  0.00  0.00  0.00  0.00  0.00  0.00  0.00  0.00
  CDT-53                  1.00   1.00  0.00  0.00  0.00  0.00  0.00  0.00  0.00  0.00
  CDT-55                  1.00   1.00  0.00  0.00  0.00  0.00  0.00  0.00  0.00  0.00
  CDT-57                 11.45   1.00  0.00  0.00  0.00  0.00  0.00  0.00  0.00  0.00
  CDT-59                  1.00   1.00  0.00  0.00  0.00  0.00  0.00  0.00  0.00  0.00
  CDT-61                  1.00   1.00  0.00  0.00  0.00  0.00  0.00  0.00  0.00  0.00
  CDT-63                  1.00   0.00  0.01  0.00  0.99  0.00  0.00  0.00  0.99  0.00
  CDT-65                  1.00   1.00  0.00  0.00  0.00  0.00  0.00  0.00  0.00  0.00
  CDT-67                  1.00   1.00  0.00  0.00  0.00  0.00  0.00  0.00  0.00  0.00
  CDT-69                  1.00   1.00  0.00  0.00  0.00  0.00  0.00  0.00  0.00  0.00
  CDT-71                  1.00   1.00  0.00  0.00  0.00  0.00  0.00  0.00  0.00  0.00
  CDT-73                  1.00   1.00  0.00  0.00  0.00  0.00  0.00  0.00  0.00  0.00
  CDT-75                  5.39   1.00  0.00  0.00  0.00  0.00  0.00  0.00  0.00  0.00
  CDT-77                  1.00   0.00  1.00  0.00  0.00  0.00  0.00  0.00  0.00  0.00
  CDT-79                  1.00   1.00  0.00  0.00  0.00  0.00  0.00  0.00  0.00  0.00
  CDT-81                  1.00   1.00  0.00  0.00  0.00  0.00  0.00  0.00  0.00  0.00
  CDT-83                  1.00   1.00  0.00  0.00  0.00  0.00  0.00  0.00  0.00  0.00
  CDT-85                  1.00   1.00  0.00  0.00  0.00  0.00  0.00  0.00  0.00  0.00
  CDT-87                  1.00   1.00  0.00  0.00  0.00  0.00  0.00  0.00  0.00  0.00
  CDT-89                  1.00   1.00  0.00  0.00  0.00  0.00  0.00  0.00  0.00  0.00
  CDT-91                  1.00   1.00  0.00  0.00  0.00  0.00  0.00  0.00  0.00  0.00
  CDT-93                  1.00   1.00  0.00  0.00  0.00  0.00  0.00  0.00  0.00  0.00
  CDT-95                  1.00   1.00  0.00  0.00  0.00  0.00  0.00  0.00  0.00  0.00
  CDT-97                  1.00   1.00  0.00  0.00  0.00  0.00  0.00  0.00  0.00  0.00
  CDT-99                  1.00   1.00  0.00  0.00  0.00  0.00  0.00  0.00  0.00  0.00
  
  
  *************************
  Conduit Surcharge Summary
  *************************
  
  ----------------------------------------------------------------------------
                                                           Hours        Hours 
                         --------- Hours Full --------   Above Full   Capacity
  Conduit                Both Ends  Upstream  Dnstream   Normal Flow   Limited
  ----------------------------------------------------------------------------
  2504                       44.63     44.63     44.83      0.01         0.01
  2628                        0.01      0.01     47.92      0.01         0.01
  2736                        0.01      0.01      9.93      0.01         0.01
  27399                       0.01      0.01     33.62      0.01         0.01
  27401                      35.50     35.50     44.76      0.01         0.01
  27403                       0.01      0.01     18.10      0.01         0.01
  2826                       45.83     45.83     46.08      0.01         0.01
  30000                      46.82     46.82     47.19      0.01         0.01
  3576                        0.01      0.01     33.32      0.01         0.01
  3630                        0.01      0.01      2.80      0.01         0.01
  4729                        0.01      0.01     44.38      0.01         0.01
  5292                        0.01      0.01      5.97      0.01         0.01
  5318                       44.46     44.46     44.88      0.01         0.01
  5319                       44.88     44.88     45.20      0.01         0.01
  5320                       45.31     45.31     46.08      0.01         0.01
  5321                       44.88     44.88     45.34      0.01         0.01
  5322                       44.37     44.37     44.88      0.01         0.01
  5323                        0.01      0.01     44.33      0.01         0.01
  5453                        0.01      0.01      0.01     40.38         0.01
  558                         0.01      0.01     47.50      0.01         0.01
  568                         0.01      0.01     47.39      0.01         0.01
  5759                        0.01      0.01     46.03      0.01         0.01
  5824                        0.01      0.01     46.75      0.01         0.01
  5855                        0.01      0.01     46.89      0.01         0.01
  5858                       46.52     46.52     46.73      0.01         0.01
  5877                        0.01      0.01     46.47      0.01         0.01
  6114                        0.01      0.01      0.01      7.45         0.01
  6119                        0.01      0.01      0.01     13.57         0.01
  6120                        0.01      0.29      0.01     18.92         0.01
  6213                        9.65      9.65     26.35      0.01         0.01
  6214                        0.01      0.01     44.23      0.01         0.01
  CDT-15                     46.69     46.69     46.77      0.01         0.01
  
  
  ***************
  Pumping Summary
  ***************
  
  ---------------------------------------------------------------------------------------------------------
                                                  Min       Avg       Max     Total     Power    % Time Off
                        Percent   Number of      Flow      Flow      Flow    Volume     Usage    Pump Curve
  Pump                 Utilized   Start-Ups       MGD       MGD       MGD  10^6 gal     Kw-hr    Low   High
  ---------------------------------------------------------------------------------------------------------
  1287                    10.68         535      0.00      0.63      0.63     0.135     11.65    0.0    0.0
  1325                     9.70         676      0.00      2.59      2.59     0.502     37.32    0.0    0.0
  1381                     0.00           0      0.00      0.00      0.00     0.000      0.00    0.0    0.0
  2198                    30.71         306      0.00      6.00      6.00     3.679    739.27    0.0    0.0
  2359                     7.72          40      0.00      0.22      0.22     0.033      1.05    0.0    0.0
  27692                    0.00           0      0.00      0.00      0.00     0.000      0.00    0.0    0.0
  27699                    0.00           0      0.00      0.00      0.00     0.000      0.00    0.0    0.0
  3571                    15.14         472      0.00      0.94      0.94     0.283     11.44    0.0    0.0
  3687                     9.10          63      0.00      0.14      0.14     0.026      2.59    0.0    0.0
  5835                    34.18        3386      0.00      3.57      3.57     2.435    133.99    0.0    0.0
  6212                    43.87         190      0.00      1.73      1.73     1.514    435.32    0.0    0.0
  644                      6.80         364      0.00      0.50      0.50     0.068      4.31    0.0    0.0
  PUMP-11                  0.00           0      0.00      0.00      0.00     0.000      0.00    0.0    0.0
  PUMP-13                  0.00           0      0.00      0.00      0.00     0.000      0.00    0.0    0.0
  PUMP-15                  0.00           0      0.00      0.00      0.00     0.000      0.00    0.0    0.0
  PUMP-17                  0.00           0      0.00      0.00      0.00     0.000      0.00    0.0    0.0
  PUMP-19                  0.00           0      0.00      0.00      0.00     0.000      0.00    0.0    0.0
  PUMP-21                  0.00           0      0.00      0.00      0.00     0.000      0.00    0.0    0.0
  PUMP-23                 40.03         160      0.00      0.11      0.11     0.086     12.62    0.0    0.0
  PUMP-25                  0.00           0      0.00      0.00      0.00     0.000      0.00    0.0    0.0
  PUMP-27                  0.00           0      0.00      0.00      0.00     0.000      0.00    0.0    0.0
  PUMP-29                  0.00           0      0.00      0.00      0.00     0.000      0.00    0.0    0.0
  PUMP-31                  0.00           0      0.00      0.00      0.00     0.000      0.00    0.0    0.0
  PUMP-33                  0.00           0      0.00      0.00      0.00     0.000      0.00    0.0    0.0
  PUMP-35                  0.00           0      0.00      0.00      0.00     0.000      0.00    0.0    0.0
  PUMP-41                 43.25         187      0.00      0.25      0.25     0.218     30.36    0.0    0.0
  PUMP-43                  0.00           1      0.00      0.25      0.25     0.000      0.00    0.0    0.0
  

  Analysis begun on:  Wed Jun 24 09:24:19 2026
  Analysis ended on:  Wed Jun 24 09:25:09 2026
  Total elapsed time: 00:00:50