
  EPA STORM WATER MANAGEMENT MODEL - VERSION 5.2 (Build 5.2.4)
  ------------------------------------------------------------

  Scenario Run :  BASE 
  WARNING 08: elevation drop exceeds length for Conduit CO-1
  WARNING 04: minimum elevation drop used for Conduit FM-18
  WARNING 04: minimum elevation drop used for Conduit FM-197
  WARNING 04: minimum elevation drop used for Conduit FM-32
  WARNING 04: minimum elevation drop used for Conduit FM-3515
  WARNING 04: minimum elevation drop used for Conduit FM-4
  WARNING 04: minimum elevation drop used for Conduit FM-452
  WARNING 08: elevation drop exceeds length for Conduit FM-4981
  WARNING 08: elevation drop exceeds length for Conduit FM-4982
  WARNING 04: minimum elevation drop used for Conduit FM-5
  WARNING 08: elevation drop exceeds length for Conduit RP0017A
  WARNING 08: elevation drop exceeds length for Conduit RP0017B
  WARNING 08: elevation drop exceeds length for Conduit RP0018A
  WARNING 08: elevation drop exceeds length for Conduit RP0018B
  WARNING 08: elevation drop exceeds length for Conduit RP0019A
  WARNING 08: elevation drop exceeds length for Conduit RP0019B
  WARNING 08: elevation drop exceeds length for Conduit RP0020A
  WARNING 08: elevation drop exceeds length for Conduit RP0020B
  WARNING 08: elevation drop exceeds length for Conduit RP0021A
  WARNING 08: elevation drop exceeds length for Conduit RP0021B
  WARNING 08: elevation drop exceeds length for Conduit RP0022A
  WARNING 08: elevation drop exceeds length for Conduit RP0022B
  WARNING 08: elevation drop exceeds length for Conduit RP0023A
  WARNING 08: elevation drop exceeds length for Conduit RP0023B
  WARNING 08: elevation drop exceeds length for Conduit RP0024A
  WARNING 08: elevation drop exceeds length for Conduit RP0024B
  WARNING 08: elevation drop exceeds length for Conduit RP0025A
  WARNING 08: elevation drop exceeds length for Conduit RP0025B
  WARNING 08: elevation drop exceeds length for Conduit RP0026A
  WARNING 08: elevation drop exceeds length for Conduit RP0026B
  WARNING 08: elevation drop exceeds length for Conduit RP0027
  WARNING 08: elevation drop exceeds length for Conduit RP0028A
  WARNING 08: elevation drop exceeds length for Conduit RP0028B
  WARNING 08: elevation drop exceeds length for Conduit RP0029A
  WARNING 08: elevation drop exceeds length for Conduit RP0029B
  WARNING 08: elevation drop exceeds length for Conduit RP0030A
  WARNING 08: elevation drop exceeds length for Conduit RP0030B
  WARNING 08: elevation drop exceeds length for Conduit RP0031A
  WARNING 08: elevation drop exceeds length for Conduit RP0031B
  WARNING 08: elevation drop exceeds length for Conduit RP0032A
  WARNING 08: elevation drop exceeds length for Conduit RP0032B
  WARNING 08: elevation drop exceeds length for Conduit RP0033A
  WARNING 08: elevation drop exceeds length for Conduit RP0033B
  WARNING 08: elevation drop exceeds length for Conduit RP0034A
  WARNING 08: elevation drop exceeds length for Conduit RP0034B
  WARNING 08: elevation drop exceeds length for Conduit RP0035A
  WARNING 08: elevation drop exceeds length for Conduit RP0035B
  WARNING 08: elevation drop exceeds length for Conduit RP0036A
  WARNING 08: elevation drop exceeds length for Conduit RP0036B
  WARNING 08: elevation drop exceeds length for Conduit RP0037A
  WARNING 08: elevation drop exceeds length for Conduit RP0037B
  WARNING 08: elevation drop exceeds length for Conduit RP0038A
  WARNING 08: elevation drop exceeds length for Conduit RP0038B
  WARNING 08: elevation drop exceeds length for Conduit RP0039A
  WARNING 08: elevation drop exceeds length for Conduit RP0039B
  WARNING 08: elevation drop exceeds length for Conduit RP0040A
  WARNING 08: elevation drop exceeds length for Conduit RP0040B
  WARNING 08: elevation drop exceeds length for Conduit RP0043A
  WARNING 08: elevation drop exceeds length for Conduit RP0043B
  WARNING 08: elevation drop exceeds length for Conduit RP0044A
  WARNING 08: elevation drop exceeds length for Conduit RP0044B
  WARNING 08: elevation drop exceeds length for Conduit RP0045A
  WARNING 08: elevation drop exceeds length for Conduit RP0045B
  WARNING 08: elevation drop exceeds length for Conduit RP0046A
  WARNING 08: elevation drop exceeds length for Conduit RP0046B
  WARNING 08: elevation drop exceeds length for Conduit RP0047A
  WARNING 08: elevation drop exceeds length for Conduit RP0047B
  WARNING 08: elevation drop exceeds length for Conduit RP0048A
  WARNING 08: elevation drop exceeds length for Conduit RP0048B
  WARNING 08: elevation drop exceeds length for Conduit RP0049A
  WARNING 08: elevation drop exceeds length for Conduit RP0049B
  WARNING 08: elevation drop exceeds length for Conduit RP0050A
  WARNING 08: elevation drop exceeds length for Conduit RP0050B
  WARNING 08: elevation drop exceeds length for Conduit RP0051A
  WARNING 08: elevation drop exceeds length for Conduit RP0051B
  WARNING 08: elevation drop exceeds length for Conduit RP0054A
  WARNING 08: elevation drop exceeds length for Conduit RP0054B
  WARNING 08: elevation drop exceeds length for Conduit RP0055A
  WARNING 08: elevation drop exceeds length for Conduit RP0055B
  WARNING 08: elevation drop exceeds length for Conduit RP0056A
  WARNING 08: elevation drop exceeds length for Conduit RP0056B
  WARNING 08: elevation drop exceeds length for Conduit RP0057A
  WARNING 08: elevation drop exceeds length for Conduit RP0057B
  WARNING 08: elevation drop exceeds length for Conduit RP0058A
  WARNING 08: elevation drop exceeds length for Conduit RP0058B
  WARNING 08: elevation drop exceeds length for Conduit RP0060A
  WARNING 08: elevation drop exceeds length for Conduit RP0060B
  WARNING 08: elevation drop exceeds length for Conduit RP0063A
  WARNING 08: elevation drop exceeds length for Conduit RP0063B
  WARNING 08: elevation drop exceeds length for Conduit RP0065A
  WARNING 08: elevation drop exceeds length for Conduit RP0065B
  WARNING 08: elevation drop exceeds length for Conduit RP0066A
  WARNING 08: elevation drop exceeds length for Conduit RP0066B
  WARNING 08: elevation drop exceeds length for Conduit RP0070A
  WARNING 08: elevation drop exceeds length for Conduit RP0070B
  WARNING 08: elevation drop exceeds length for Conduit RP0071A
  WARNING 08: elevation drop exceeds length for Conduit RP0071B
  WARNING 08: elevation drop exceeds length for Conduit RP0072A
  WARNING 08: elevation drop exceeds length for Conduit RP0072B
  WARNING 08: elevation drop exceeds length for Conduit RP0073A
  WARNING 08: elevation drop exceeds length for Conduit RP0073B
  WARNING 08: elevation drop exceeds length for Conduit RP0078B
  WARNING 08: elevation drop exceeds length for Conduit RP0080A
  WARNING 08: elevation drop exceeds length for Conduit RP0080B
  WARNING 08: elevation drop exceeds length for Conduit RP0082A
  WARNING 08: elevation drop exceeds length for Conduit RP0082B
  WARNING 08: elevation drop exceeds length for Conduit RP0084A
  WARNING 08: elevation drop exceeds length for Conduit RP0084B
  WARNING 08: elevation drop exceeds length for Conduit RP0087A
  WARNING 08: elevation drop exceeds length for Conduit RP0087B
  WARNING 08: elevation drop exceeds length for Conduit RP0087C
  WARNING 08: elevation drop exceeds length for Conduit RP0091A
  WARNING 08: elevation drop exceeds length for Conduit RP0091B
  WARNING 08: elevation drop exceeds length for Conduit RP0096A
  WARNING 08: elevation drop exceeds length for Conduit RP0096B
  WARNING 08: elevation drop exceeds length for Conduit RP0097A
  WARNING 08: elevation drop exceeds length for Conduit RP0097B
  WARNING 08: elevation drop exceeds length for Conduit RP0099A
  WARNING 08: elevation drop exceeds length for Conduit RP0099B
  WARNING 08: elevation drop exceeds length for Conduit RP0100A
  WARNING 08: elevation drop exceeds length for Conduit RP0100B
  WARNING 08: elevation drop exceeds length for Conduit RP0102A
  WARNING 08: elevation drop exceeds length for Conduit RP0102B
  WARNING 08: elevation drop exceeds length for Conduit RP0103A
  WARNING 08: elevation drop exceeds length for Conduit RP0103B
  WARNING 08: elevation drop exceeds length for Conduit RP0104A
  WARNING 08: elevation drop exceeds length for Conduit RP0104B
  WARNING 08: elevation drop exceeds length for Conduit RP0106A
  WARNING 08: elevation drop exceeds length for Conduit RP0106B
  WARNING 08: elevation drop exceeds length for Conduit RP0107A
  WARNING 08: elevation drop exceeds length for Conduit RP0107B
  WARNING 08: elevation drop exceeds length for Conduit RP0109A
  WARNING 08: elevation drop exceeds length for Conduit RP0109B
  WARNING 08: elevation drop exceeds length for Conduit RP0110A
  WARNING 08: elevation drop exceeds length for Conduit RP0110B
  WARNING 08: elevation drop exceeds length for Conduit RP0111
  WARNING 08: elevation drop exceeds length for Conduit RP0112A
  WARNING 08: elevation drop exceeds length for Conduit RP0112B
  WARNING 08: elevation drop exceeds length for Conduit RP0114A
  WARNING 08: elevation drop exceeds length for Conduit RP0114B
  WARNING 08: elevation drop exceeds length for Conduit RP0115A
  WARNING 08: elevation drop exceeds length for Conduit RP0115B
  WARNING 08: elevation drop exceeds length for Conduit RP0116A
  WARNING 08: elevation drop exceeds length for Conduit RP0116B
  WARNING 08: elevation drop exceeds length for Conduit RP0117A
  WARNING 08: elevation drop exceeds length for Conduit RP0117B
  WARNING 08: elevation drop exceeds length for Conduit RP0118A
  WARNING 08: elevation drop exceeds length for Conduit RP0118B
  WARNING 08: elevation drop exceeds length for Conduit RP0120A
  WARNING 08: elevation drop exceeds length for Conduit RP0120B
  WARNING 08: elevation drop exceeds length for Conduit RP0121A
  WARNING 08: elevation drop exceeds length for Conduit RP0121B
  WARNING 08: elevation drop exceeds length for Conduit RP0123A
  WARNING 08: elevation drop exceeds length for Conduit RP0123B
  WARNING 08: elevation drop exceeds length for Conduit RP0123C
  WARNING 08: elevation drop exceeds length for Conduit RP0127A
  WARNING 08: elevation drop exceeds length for Conduit RP0127B
  WARNING 08: elevation drop exceeds length for Conduit RP0128A
  WARNING 08: elevation drop exceeds length for Conduit RP0128B
  WARNING 08: elevation drop exceeds length for Conduit RP0129A
  WARNING 08: elevation drop exceeds length for Conduit RP0129B
  WARNING 08: elevation drop exceeds length for Conduit RP0130A
  WARNING 08: elevation drop exceeds length for Conduit RP0130B
  WARNING 08: elevation drop exceeds length for Conduit RP0133A
  WARNING 08: elevation drop exceeds length for Conduit RP0133B
  WARNING 08: elevation drop exceeds length for Conduit RP0137A
  WARNING 08: elevation drop exceeds length for Conduit RP0137B
  WARNING 08: elevation drop exceeds length for Conduit RP0139A
  WARNING 08: elevation drop exceeds length for Conduit RP0139B
  WARNING 08: elevation drop exceeds length for Conduit RP0140A
  WARNING 08: elevation drop exceeds length for Conduit RP0140B
  WARNING 08: elevation drop exceeds length for Conduit RP0141A
  WARNING 08: elevation drop exceeds length for Conduit RP0141B
  WARNING 08: elevation drop exceeds length for Conduit RP0144A
  WARNING 08: elevation drop exceeds length for Conduit RP0144B
  WARNING 08: elevation drop exceeds length for Conduit RP0148A
  WARNING 08: elevation drop exceeds length for Conduit RP0148B
  WARNING 08: elevation drop exceeds length for Conduit RP0150A
  WARNING 08: elevation drop exceeds length for Conduit RP0150B
  WARNING 08: elevation drop exceeds length for Conduit RP0153A
  WARNING 08: elevation drop exceeds length for Conduit RP0153B
  WARNING 08: elevation drop exceeds length for Conduit RP0154A
  WARNING 08: elevation drop exceeds length for Conduit RP0154B
  WARNING 08: elevation drop exceeds length for Conduit RP0155A
  WARNING 08: elevation drop exceeds length for Conduit RP0155B
  WARNING 08: elevation drop exceeds length for Conduit RP0156A
  WARNING 08: elevation drop exceeds length for Conduit RP0156B
  WARNING 08: elevation drop exceeds length for Conduit RP0157A
  WARNING 08: elevation drop exceeds length for Conduit RP0157B
  WARNING 08: elevation drop exceeds length for Conduit RP0158A
  WARNING 08: elevation drop exceeds length for Conduit RP0158B
  WARNING 08: elevation drop exceeds length for Conduit RP0159A
  WARNING 08: elevation drop exceeds length for Conduit RP0159B
  WARNING 08: elevation drop exceeds length for Conduit RP0160A
  WARNING 08: elevation drop exceeds length for Conduit RP0160B
  WARNING 08: elevation drop exceeds length for Conduit RP0161A
  WARNING 08: elevation drop exceeds length for Conduit RP0161B
  WARNING 08: elevation drop exceeds length for Conduit RP0162A
  WARNING 08: elevation drop exceeds length for Conduit RP0162B
  WARNING 08: elevation drop exceeds length for Conduit RP0163A
  WARNING 08: elevation drop exceeds length for Conduit RP0163B
  WARNING 08: elevation drop exceeds length for Conduit RP0164A
  WARNING 08: elevation drop exceeds length for Conduit RP0164B
  WARNING 08: elevation drop exceeds length for Conduit RP0165A
  WARNING 08: elevation drop exceeds length for Conduit RP0165B
  WARNING 08: elevation drop exceeds length for Conduit RP0166A
  WARNING 08: elevation drop exceeds length for Conduit RP0166B
  WARNING 08: elevation drop exceeds length for Conduit RP0173A
  WARNING 08: elevation drop exceeds length for Conduit RP0173B
  WARNING 08: elevation drop exceeds length for Conduit RP0173C
  WARNING 08: elevation drop exceeds length for Conduit RPMLS4A
  WARNING 08: elevation drop exceeds length for Conduit RPMLS4B
  WARNING 08: elevation drop exceeds length for Conduit RPMLS4C
  WARNING 08: elevation drop exceeds length for Conduit RPSGMASTERA
  WARNING 08: elevation drop exceeds length for Conduit RPSGMASTERB
  WARNING 08: elevation drop exceeds length for Conduit RPSGMASTERC
  WARNING 08: elevation drop exceeds length for Conduit SP0017A
  WARNING 08: elevation drop exceeds length for Conduit SP0017B
  WARNING 08: elevation drop exceeds length for Conduit SP0018A
  WARNING 08: elevation drop exceeds length for Conduit SP0018B
  WARNING 08: elevation drop exceeds length for Conduit SP0019A
  WARNING 08: elevation drop exceeds length for Conduit SP0019B
  WARNING 08: elevation drop exceeds length for Conduit SP0020A
  WARNING 08: elevation drop exceeds length for Conduit SP0020B
  WARNING 08: elevation drop exceeds length for Conduit SP0021A
  WARNING 08: elevation drop exceeds length for Conduit SP0021B
  WARNING 08: elevation drop exceeds length for Conduit SP0022A
  WARNING 08: elevation drop exceeds length for Conduit SP0022B
  WARNING 08: elevation drop exceeds length for Conduit SP0023A
  WARNING 08: elevation drop exceeds length for Conduit SP0023B
  WARNING 08: elevation drop exceeds length for Conduit SP0024A
  WARNING 08: elevation drop exceeds length for Conduit SP0024B
  WARNING 08: elevation drop exceeds length for Conduit SP0025A
  WARNING 08: elevation drop exceeds length for Conduit SP0025B
  WARNING 08: elevation drop exceeds length for Conduit SP0026A
  WARNING 08: elevation drop exceeds length for Conduit SP0026B
  WARNING 08: elevation drop exceeds length for Conduit SP0027
  WARNING 08: elevation drop exceeds length for Conduit SP0028A
  WARNING 08: elevation drop exceeds length for Conduit SP0028B
  WARNING 08: elevation drop exceeds length for Conduit SP0029A
  WARNING 08: elevation drop exceeds length for Conduit SP0029B
  WARNING 08: elevation drop exceeds length for Conduit SP0030A
  WARNING 08: elevation drop exceeds length for Conduit SP0030B
  WARNING 08: elevation drop exceeds length for Conduit SP0031A
  WARNING 08: elevation drop exceeds length for Conduit SP0031B
  WARNING 08: elevation drop exceeds length for Conduit SP0032A
  WARNING 08: elevation drop exceeds length for Conduit SP0032B
  WARNING 08: elevation drop exceeds length for Conduit SP0033A
  WARNING 08: elevation drop exceeds length for Conduit SP0033B
  WARNING 08: elevation drop exceeds length for Conduit SP0034A
  WARNING 08: elevation drop exceeds length for Conduit SP0034B
  WARNING 08: elevation drop exceeds length for Conduit SP0035A
  WARNING 08: elevation drop exceeds length for Conduit SP0035B
  WARNING 08: elevation drop exceeds length for Conduit SP0036A
  WARNING 08: elevation drop exceeds length for Conduit SP0036B
  WARNING 08: elevation drop exceeds length for Conduit SP0037A
  WARNING 08: elevation drop exceeds length for Conduit SP0037B
  WARNING 08: elevation drop exceeds length for Conduit SP0038A
  WARNING 08: elevation drop exceeds length for Conduit SP0038B
  WARNING 08: elevation drop exceeds length for Conduit SP0039A
  WARNING 08: elevation drop exceeds length for Conduit SP0039B
  WARNING 08: elevation drop exceeds length for Conduit SP0040A
  WARNING 08: elevation drop exceeds length for Conduit SP0040B
  WARNING 08: elevation drop exceeds length for Conduit SP0041A
  WARNING 08: elevation drop exceeds length for Conduit SP0041B
  WARNING 08: elevation drop exceeds length for Conduit SP0042A
  WARNING 08: elevation drop exceeds length for Conduit SP0042B
  WARNING 08: elevation drop exceeds length for Conduit SP0043A
  WARNING 08: elevation drop exceeds length for Conduit SP0043B
  WARNING 08: elevation drop exceeds length for Conduit SP0044A
  WARNING 08: elevation drop exceeds length for Conduit SP0044B
  WARNING 08: elevation drop exceeds length for Conduit SP0045A
  WARNING 08: elevation drop exceeds length for Conduit SP0045B
  WARNING 08: elevation drop exceeds length for Conduit SP0046A
  WARNING 08: elevation drop exceeds length for Conduit SP0046B
  WARNING 08: elevation drop exceeds length for Conduit SP0047A
  WARNING 08: elevation drop exceeds length for Conduit SP0047B
  WARNING 08: elevation drop exceeds length for Conduit SP0048A
  WARNING 08: elevation drop exceeds length for Conduit SP0048B
  WARNING 08: elevation drop exceeds length for Conduit SP0049A
  WARNING 08: elevation drop exceeds length for Conduit SP0049B
  WARNING 08: elevation drop exceeds length for Conduit SP0050A
  WARNING 08: elevation drop exceeds length for Conduit SP0050B
  WARNING 08: elevation drop exceeds length for Conduit SP0051A
  WARNING 08: elevation drop exceeds length for Conduit SP0051B
  WARNING 08: elevation drop exceeds length for Conduit SP0053A
  WARNING 08: elevation drop exceeds length for Conduit SP0053B
  WARNING 08: elevation drop exceeds length for Conduit SP0054A
  WARNING 08: elevation drop exceeds length for Conduit SP0054B
  WARNING 08: elevation drop exceeds length for Conduit SP0055A
  WARNING 08: elevation drop exceeds length for Conduit SP0055B
  WARNING 08: elevation drop exceeds length for Conduit SP0056A
  WARNING 08: elevation drop exceeds length for Conduit SP0056B
  WARNING 08: elevation drop exceeds length for Conduit SP0057A
  WARNING 08: elevation drop exceeds length for Conduit SP0057B
  WARNING 08: elevation drop exceeds length for Conduit SP0058A
  WARNING 08: elevation drop exceeds length for Conduit SP0058B
  WARNING 08: elevation drop exceeds length for Conduit SP0060A
  WARNING 08: elevation drop exceeds length for Conduit SP0060B
  WARNING 08: elevation drop exceeds length for Conduit SP0063A
  WARNING 08: elevation drop exceeds length for Conduit SP0063B
  WARNING 08: elevation drop exceeds length for Conduit SP0064A
  WARNING 08: elevation drop exceeds length for Conduit SP0064B
  WARNING 08: elevation drop exceeds length for Conduit SP0064C
  WARNING 08: elevation drop exceeds length for Conduit SP0065A
  WARNING 08: elevation drop exceeds length for Conduit SP0065B
  WARNING 08: elevation drop exceeds length for Conduit SP0066A
  WARNING 08: elevation drop exceeds length for Conduit SP0066B
  WARNING 08: elevation drop exceeds length for Conduit SP0070A
  WARNING 08: elevation drop exceeds length for Conduit SP0070B
  WARNING 08: elevation drop exceeds length for Conduit SP0071A
  WARNING 08: elevation drop exceeds length for Conduit SP0071B
  WARNING 08: elevation drop exceeds length for Conduit SP0072A
  WARNING 08: elevation drop exceeds length for Conduit SP0072B
  WARNING 08: elevation drop exceeds length for Conduit SP0073A
  WARNING 08: elevation drop exceeds length for Conduit SP0073B
  WARNING 04: minimum elevation drop used for Conduit SP0078A
  WARNING 04: minimum elevation drop used for Conduit SP0078B
  WARNING 04: minimum elevation drop used for Conduit SP0078C
  WARNING 08: elevation drop exceeds length for Conduit SP0080A
  WARNING 08: elevation drop exceeds length for Conduit SP0080B
  WARNING 08: elevation drop exceeds length for Conduit SP0082A
  WARNING 08: elevation drop exceeds length for Conduit SP0082B
  WARNING 08: elevation drop exceeds length for Conduit SP0084A
  WARNING 08: elevation drop exceeds length for Conduit SP0084B
  WARNING 08: elevation drop exceeds length for Conduit SP0091A
  WARNING 08: elevation drop exceeds length for Conduit SP0091B
  WARNING 08: elevation drop exceeds length for Conduit SP0096A
  WARNING 08: elevation drop exceeds length for Conduit SP0096B
  WARNING 08: elevation drop exceeds length for Conduit SP0097A
  WARNING 08: elevation drop exceeds length for Conduit SP0097B
  WARNING 08: elevation drop exceeds length for Conduit SP0099A
  WARNING 08: elevation drop exceeds length for Conduit SP0099B
  WARNING 08: elevation drop exceeds length for Conduit SP0100A
  WARNING 08: elevation drop exceeds length for Conduit SP0100B
  WARNING 08: elevation drop exceeds length for Conduit SP0102A
  WARNING 08: elevation drop exceeds length for Conduit SP0102B
  WARNING 08: elevation drop exceeds length for Conduit SP0103A
  WARNING 08: elevation drop exceeds length for Conduit SP0103B
  WARNING 08: elevation drop exceeds length for Conduit SP0104A
  WARNING 08: elevation drop exceeds length for Conduit SP0104B
  WARNING 08: elevation drop exceeds length for Conduit SP0106A
  WARNING 08: elevation drop exceeds length for Conduit SP0106B
  WARNING 08: elevation drop exceeds length for Conduit SP0107A
  WARNING 08: elevation drop exceeds length for Conduit SP0107B
  WARNING 08: elevation drop exceeds length for Conduit SP0108A
  WARNING 08: elevation drop exceeds length for Conduit SP0108B
  WARNING 08: elevation drop exceeds length for Conduit SP0108C
  WARNING 08: elevation drop exceeds length for Conduit SP0109A
  WARNING 08: elevation drop exceeds length for Conduit SP0109B
  WARNING 08: elevation drop exceeds length for Conduit SP0110A
  WARNING 08: elevation drop exceeds length for Conduit SP0110B
  WARNING 08: elevation drop exceeds length for Conduit SP0111
  WARNING 08: elevation drop exceeds length for Conduit SP0112A
  WARNING 08: elevation drop exceeds length for Conduit SP0112B
  WARNING 08: elevation drop exceeds length for Conduit SP0114A
  WARNING 08: elevation drop exceeds length for Conduit SP0114B
  WARNING 08: elevation drop exceeds length for Conduit SP0115A
  WARNING 08: elevation drop exceeds length for Conduit SP0115B
  WARNING 08: elevation drop exceeds length for Conduit SP0116A
  WARNING 08: elevation drop exceeds length for Conduit SP0116B
  WARNING 08: elevation drop exceeds length for Conduit SP0117A
  WARNING 08: elevation drop exceeds length for Conduit SP0117B
  WARNING 08: elevation drop exceeds length for Conduit SP0118A
  WARNING 08: elevation drop exceeds length for Conduit SP0118B
  WARNING 08: elevation drop exceeds length for Conduit SP0120A
  WARNING 08: elevation drop exceeds length for Conduit SP0120B
  WARNING 08: elevation drop exceeds length for Conduit SP0121A
  WARNING 08: elevation drop exceeds length for Conduit SP0121B
  WARNING 08: elevation drop exceeds length for Conduit SP0123A
  WARNING 08: elevation drop exceeds length for Conduit SP0123B
  WARNING 08: elevation drop exceeds length for Conduit SP0123C
  WARNING 08: elevation drop exceeds length for Conduit SP0127A
  WARNING 08: elevation drop exceeds length for Conduit SP0127B
  WARNING 08: elevation drop exceeds length for Conduit SP0128A
  WARNING 08: elevation drop exceeds length for Conduit SP0128B
  WARNING 08: elevation drop exceeds length for Conduit SP0129A
  WARNING 08: elevation drop exceeds length for Conduit SP0129B
  WARNING 08: elevation drop exceeds length for Conduit SP0130A
  WARNING 08: elevation drop exceeds length for Conduit SP0130B
  WARNING 08: elevation drop exceeds length for Conduit SP0133A
  WARNING 08: elevation drop exceeds length for Conduit SP0133B
  WARNING 08: elevation drop exceeds length for Conduit SP0135A
  WARNING 08: elevation drop exceeds length for Conduit SP0135B
  WARNING 08: elevation drop exceeds length for Conduit SP0137A
  WARNING 08: elevation drop exceeds length for Conduit SP0137B
  WARNING 08: elevation drop exceeds length for Conduit SP0139A
  WARNING 08: elevation drop exceeds length for Conduit SP0139B
  WARNING 08: elevation drop exceeds length for Conduit SP0140A
  WARNING 08: elevation drop exceeds length for Conduit SP0140B
  WARNING 08: elevation drop exceeds length for Conduit SP0141A
  WARNING 08: elevation drop exceeds length for Conduit SP0141B
  WARNING 08: elevation drop exceeds length for Conduit SP0144A
  WARNING 08: elevation drop exceeds length for Conduit SP0144B
  WARNING 08: elevation drop exceeds length for Conduit SP0148A
  WARNING 08: elevation drop exceeds length for Conduit SP0148B
  WARNING 08: elevation drop exceeds length for Conduit SP0150A
  WARNING 08: elevation drop exceeds length for Conduit SP0150B
  WARNING 08: elevation drop exceeds length for Conduit SP0153A
  WARNING 08: elevation drop exceeds length for Conduit SP0153B
  WARNING 08: elevation drop exceeds length for Conduit SP0154A
  WARNING 08: elevation drop exceeds length for Conduit SP0154B
  WARNING 08: elevation drop exceeds length for Conduit SP0155A
  WARNING 08: elevation drop exceeds length for Conduit SP0155B
  WARNING 08: elevation drop exceeds length for Conduit SP0156A
  WARNING 08: elevation drop exceeds length for Conduit SP0156B
  WARNING 08: elevation drop exceeds length for Conduit SP0157A
  WARNING 08: elevation drop exceeds length for Conduit SP0157B
  WARNING 08: elevation drop exceeds length for Conduit SP0158A
  WARNING 08: elevation drop exceeds length for Conduit SP0158B
  WARNING 08: elevation drop exceeds length for Conduit SP0159A
  WARNING 08: elevation drop exceeds length for Conduit SP0159B
  WARNING 08: elevation drop exceeds length for Conduit SP0160A
  WARNING 08: elevation drop exceeds length for Conduit SP0160B
  WARNING 08: elevation drop exceeds length for Conduit SP0161A
  WARNING 08: elevation drop exceeds length for Conduit SP0161B
  WARNING 08: elevation drop exceeds length for Conduit SP0162A
  WARNING 08: elevation drop exceeds length for Conduit SP0162B
  WARNING 08: elevation drop exceeds length for Conduit SP0163A
  WARNING 08: elevation drop exceeds length for Conduit SP0163B
  WARNING 08: elevation drop exceeds length for Conduit SP0164A
  WARNING 08: elevation drop exceeds length for Conduit SP0164B
  WARNING 08: elevation drop exceeds length for Conduit SP0165A
  WARNING 08: elevation drop exceeds length for Conduit SP0165B
  WARNING 08: elevation drop exceeds length for Conduit SP0166A
  WARNING 08: elevation drop exceeds length for Conduit SP0166B
  WARNING 08: elevation drop exceeds length for Conduit SP0173A
  WARNING 08: elevation drop exceeds length for Conduit SP0173B
  WARNING 08: elevation drop exceeds length for Conduit SP0173C
  WARNING 08: elevation drop exceeds length for Conduit SPMLS4A
  WARNING 08: elevation drop exceeds length for Conduit SPMLS4B
  WARNING 08: elevation drop exceeds length for Conduit SPMLS4C
  WARNING 02: maximum depth increased for Node MH-1
  
  ****************
  Analysis Options
  ****************
  Flow Units ............... CFS
  Process Models:
    Rainfall/Runoff ........ NO
    RDII ................... NO
    Snowmelt ............... NO
    Groundwater ............ NO
    Flow Routing ........... YES
    Ponding Allowed ........ YES
    Water Quality .......... NO
  Flow Routing Method ...... DYNWAVE
  Surcharge Method ......... EXTRAN
  Starting Date ............ 01/01/2000 00:00:00
  Ending Date .............. 01/02/2000 00:00:00
  Antecedent Dry Days ...... 0.0
  Report Time Step ......... 00:03:00
  Routing Time Step ........ 30.00 sec
  Variable Time Step ....... YES
  Maximum Trials ........... 8
  Number of Threads ........ 1
  Head Tolerance ........... 0.000100 ft
  
  
  **************************        Volume        Volume
  Flow Routing Continuity        acre-feet      10^6 gal
  **************************     ---------     ---------
  Dry Weather Inflow .......        10.258         3.343
  Wet Weather Inflow .......         0.000         0.000
  Groundwater Inflow .......         0.000         0.000
  RDII Inflow ..............         0.000         0.000
  External Inflow ..........         6.298         2.052
  External Outflow .........         0.000         0.000
  Flooding Loss ............         2.066         0.673
  Evaporation Loss .........         0.000         0.000
  Exfiltration Loss ........         0.000         0.000
  Initial Stored Volume ....         0.014         0.004
  Final Stored Volume ......         6.983         2.276
  Continuity Error (%) .....        45.387
  
  
  *************************
  Highest Continuity Errors
  *************************
  Node LS-222-0162 (-443.37%)
  Node START_0031A_JUNCTION (-125.91%)
  Node START_0031B_JUNCTION (-125.91%)
  Node LS-231-0161 (-119.79%)
  Node 0118A_JUNCTION (100.00%)
  
  
  ***************************
  Time-Step Critical Elements
  ***************************
  Link FM-5 (49.51%)
  Link FM-4 (12.29%)
  Link FM-1364 (5.16%)
  Link FM-1479 (2.95%)
  Link FM-1492 (2.56%)
  
  
  ********************************
  Highest Flow Instability Indexes
  ********************************
  Link RP0042A (57)
  Link RP0042B (57)
  Link RP0097A (32)
  Link RP0097B (32)
  Link SP0038A (31)
  
  
  *********************************
  Most Frequent Nonconverging Nodes
  *********************************
  Node BEERIDGE_WWTP (99.99%)
  Node J-1785 (98.73%)
  Node J-1793 (98.71%)
  Node J-1787 (98.70%)
  Node J-1786 (98.60%)
  
  
  *************************
  Routing Time Step Summary
  *************************
  Minimum Time Step           :     0.20 sec
  Average Time Step           :     5.26 sec
  Maximum Time Step           :    30.00 sec
  % of Time in Steady State   :     0.00
  Average Iterations per Step :     8.00
  % of Steps Not Converging   :    99.99
  Time Step Frequencies       :
     30.000 - 13.228 sec      :     3.14 %
     13.228 -  5.833 sec      :    20.84 %
      5.833 -  2.572 sec      :    65.40 %
      2.572 -  1.134 sec      :     7.71 %
      1.134 -  0.500 sec      :     2.91 %
  
  
  ******************
  Node Depth Summary
  ******************
  
  ---------------------------------------------------------------------------------
                                 Average  Maximum  Maximum  Time of Max    Reported
                                   Depth    Depth      HGL   Occurrence   Max Depth
  Node                 Type         Feet     Feet     Feet  days hr:min        Feet
  ---------------------------------------------------------------------------------
  0017A_JUNCTION       JUNCTION     0.00     0.00     0.00     0  00:00        0.00
  0017B_JUNCTION       JUNCTION     0.00     0.00     0.00     0  00:00        0.00
  0018A_JUNCTION       JUNCTION     0.00     0.00     0.00     0  00:00        0.00
  0018B_JUNCTION       JUNCTION     0.00     0.00     0.00     0  00:00        0.00
  0019A_JUNCTION       JUNCTION     2.58    30.35    49.49     0  19:46       15.16
  0019B_JUNCTION       JUNCTION     2.58    30.35    49.49     0  19:46       15.16
  0020A_JUNCTION       JUNCTION     0.00     0.00     0.00     0  00:00        0.00
  0020B_JUNCTION       JUNCTION     0.00     0.00     0.00     0  00:00        0.00
  0021A_JUNCTION       JUNCTION     0.00     0.00     0.00     0  00:00        0.00
  0021B_JUNCTION       JUNCTION     0.00     0.00     0.00     0  00:00        0.00
  0022A_JUNCTION       JUNCTION     0.00     0.00     0.00     0  00:00        0.00
  0022B_JUNCTION       JUNCTION     0.00     0.00     0.00     0  00:00        0.00
  0023A_JUNCTION       JUNCTION     0.00     0.00     0.00     0  00:00        0.00
  0023B_JUNCTION       JUNCTION     0.00     0.00     0.00     0  00:00        0.00
  0024A_JUNCTION       JUNCTION     0.00     0.00     0.00     0  00:00        0.00
  0024B_JUNCTION       JUNCTION     0.00     0.00     0.00     0  00:00        0.00
  0025A_JUNCTION       JUNCTION     0.00     0.00     0.00     0  00:00        0.00
  0025B_JUNCTION       JUNCTION     0.00     0.00     0.00     0  00:00        0.00
  0026A_JUNCTION       JUNCTION     0.00     0.00     0.00     0  00:00        0.00
  0026B_JUNCTION       JUNCTION     0.00     0.00     0.00     0  00:00        0.00
  0027_JUNCTION        JUNCTION     0.00     0.00     0.00     0  00:00        0.00
  0028A_JUNCTION       JUNCTION     0.00     0.00     0.00     0  00:00        0.00
  0028B_JUNCTION       JUNCTION     0.00     0.00     0.00     0  00:00        0.00
  0029A_JUNCTION       JUNCTION     0.00     0.00     0.00     0  00:00        0.00
  0029B_JUNCTION       JUNCTION     0.00     0.00     0.00     0  00:00        0.00
  0030A_JUNCTION       JUNCTION     7.56    70.09    70.09     0  20:57       35.47
  0030B_JUNCTION       JUNCTION     7.56    70.09    70.09     0  20:57       35.47
  0031A_JUNCTION       JUNCTION    13.74    73.44    73.44     0  22:31       59.76
  0031B_JUNCTION       JUNCTION    13.74    73.44    73.44     0  22:31       59.76
  0032A_JUNCTION       JUNCTION     0.00     0.00     0.00     0  00:00        0.00
  0032B_JUNCTION       JUNCTION     0.00     0.00     0.00     0  00:00        0.00
  0033A_JUNCTION       JUNCTION     0.00     0.00     0.00     0  00:00        0.00
  0033B_JUNCTION       JUNCTION     0.00     0.00     0.00     0  00:00        0.00
  0034A_JUNCTION       JUNCTION     0.00     0.00     0.00     0  00:00        0.00
  0034B_JUNCTION       JUNCTION     0.00     0.00     0.00     0  00:00        0.00
  0035A_JUNCTION       JUNCTION     0.03     0.39     0.39     1  00:00        0.39
  0035B_JUNCTION       JUNCTION     0.03     0.39     0.39     1  00:00        0.39
  0036A_JUNCTION       JUNCTION    15.24    38.68    38.68     0  12:44       27.69
  0036B_JUNCTION       JUNCTION    15.24    38.68    38.68     0  12:44       27.69
  0037A_JUNCTION       JUNCTION    16.18    27.28    27.28     0  11:56       24.99
  0037B_JUNCTION       JUNCTION    16.18    27.28    27.28     0  11:56       24.99
  0038A_JUNCTION       JUNCTION    32.17    96.17    96.17     0  16:49       76.80
  0038B_JUNCTION       JUNCTION    32.17   104.42   104.42     0  16:49       81.74
  0039A_JUNCTION       JUNCTION    12.23    38.44    38.44     0  16:07       30.02
  0039B_JUNCTION       JUNCTION    12.23    38.44    38.44     0  16:07       30.02
  0040A_JUNCTION       JUNCTION     0.00     0.00     0.00     0  00:00        0.00
  0040B_JUNCTION       JUNCTION     0.00     0.00     0.00     0  00:00        0.00
  0041A_JUNCTION       JUNCTION     6.76    19.79    43.32     0  18:30       19.31
  0041B_JUNCTION       JUNCTION     6.76    19.79    43.32     0  18:30       19.31
  0042A_JUNCTION       JUNCTION    18.27    87.04   101.54     0  16:29       71.03
  0042B_JUNCTION       JUNCTION    18.27    87.04   101.54     0  16:29       71.03
  0043A_JUNCTION       JUNCTION     0.00     0.00     0.00     0  00:00        0.00
  0043B_JUNCTION       JUNCTION     0.00     0.00     0.00     0  00:00        0.00
  0044A_JUNCTION       JUNCTION     0.00     0.00     0.00     1  00:00        0.00
  0044B_JUNCTION       JUNCTION     0.00     0.00     0.00     1  00:00        0.00
  0045A_JUNCTION       JUNCTION     0.00     0.00     0.00     0  00:00        0.00
  0045B_JUNCTION       JUNCTION     0.00     0.00     0.00     0  00:00        0.00
  0046A_JUNCTION       JUNCTION     0.00     0.00     0.00     0  00:00        0.00
  0046B_JUNCTION       JUNCTION     0.00     0.00     0.00     0  00:00        0.00
  0047A_JUNCTION       JUNCTION     0.01     0.28     0.28     1  00:00        0.28
  0047B_JUNCTION       JUNCTION     0.01     0.28     0.28     1  00:00        0.28
  0048A_JUNCTION       JUNCTION     0.00     0.00     0.00     0  00:00        0.00
  0048B_JUNCTION       JUNCTION     0.00     0.00     0.00     0  00:00        0.00
  0049A_JUNCTION       JUNCTION     2.87    41.40    41.40     0  22:55       35.35
  0049B_JUNCTION       JUNCTION     2.87    41.40    41.40     0  22:55       35.35
  0050A_JUNCTION       JUNCTION     6.78    66.94    66.94     0  22:23       61.92
  0050B_JUNCTION       JUNCTION     6.78    66.94    66.94     0  22:23       61.92
  0051A_JUNCTION       JUNCTION     3.99    74.96    74.96     1  00:00       74.96
  0051B_JUNCTION       JUNCTION     3.99    74.96    74.96     1  00:00       74.96
  0053A_JUNCTION       JUNCTION     0.00     0.00    21.00     0  00:00        0.00
  0053B_JUNCTION       JUNCTION     0.00     0.00    21.00     0  00:00        0.00
  0054A_JUNCTION       JUNCTION     0.00     0.00     0.00     0  00:00        0.00
  0054B_JUNCTION       JUNCTION     0.00     0.00     0.00     0  00:00        0.00
  0055A_JUNCTION       JUNCTION    19.26    32.17    36.67     0  01:03       21.73
  0055B_JUNCTION       JUNCTION    19.26    32.17    36.67     0  01:03       21.73
  0056A_JUNCTION       JUNCTION     0.00     0.00     0.00     0  00:00        0.00
  0056B_JUNCTION       JUNCTION     0.00     0.00     0.00     0  00:00        0.00
  0057A_JUNCTION       JUNCTION     8.28   108.83   108.83     0  22:28       87.65
  0057B_JUNCTION       JUNCTION     8.28   108.84   108.84     0  22:28       87.65
  0058A_JUNCTION       JUNCTION     0.00     0.00     0.00     0  00:00        0.00
  0058B_JUNCTION       JUNCTION     0.00     0.00     0.00     0  00:00        0.00
  0060A_JUNCTION       JUNCTION     0.00     0.00     0.00     0  00:00        0.00
  0060B_JUNCTION       JUNCTION     0.00     0.00     0.00     0  00:00        0.00
  0063A_JUNCTION       JUNCTION     0.00     0.00     0.00     0  00:00        0.00
  0063B_JUNCTION       JUNCTION     0.00     0.00     0.00     0  00:00        0.00
  0064A_JUNCTION       JUNCTION    36.96    94.23   106.48     0  20:04       80.58
  0064B_JUNCTION       JUNCTION    36.96    94.23   106.48     0  20:04       80.58
  0064C_JUNCTION       JUNCTION    36.96    94.23   106.48     0  20:04       80.58
  0065A_JUNCTION       JUNCTION     0.00     0.00     0.00     0  00:00        0.00
  0065B_JUNCTION       JUNCTION     0.00     0.00     0.00     0  00:00        0.00
  0066A_JUNCTION       JUNCTION     0.00     0.00     0.00     0  00:00        0.00
  0066B_JUNCTION       JUNCTION     0.00     0.00     0.00     0  00:00        0.00
  0070A_JUNCTION       JUNCTION     0.00     0.00     0.00     0  00:00        0.00
  0070B_JUNCTION       JUNCTION     0.00     0.00     0.00     0  00:00        0.00
  0071A_JUNCTION       JUNCTION     1.15    37.81    37.81     0  23:29       35.33
  0071B_JUNCTION       JUNCTION     1.15    37.81    37.81     0  23:29       35.33
  0072A_JUNCTION       JUNCTION     0.00     0.00     0.00     0  00:00        0.00
  0072B_JUNCTION       JUNCTION     0.00     0.00     0.00     0  00:00        0.00
  0073A_JUNCTION       JUNCTION     0.00     0.00     0.00     0  00:00        0.00
  0073B_JUNCTION       JUNCTION     0.00     0.00     0.00     0  00:00        0.00
  0078A_JUNCTION       JUNCTION    48.08   245.36   244.36     0  11:08       85.50
  0078B_JUNCTION       JUNCTION    48.14   245.31   244.31     0  11:08       85.50
  0078C_JUNCTION       JUNCTION    48.15   245.33   244.33     0  11:08       85.50
  0080A_JUNCTION       JUNCTION    61.85   183.29   183.29     0  11:39      113.34
  0080B_JUNCTION       JUNCTION    61.85   183.29   183.29     0  11:39      113.34
  0082A_JUNCTION       JUNCTION    62.02   180.88   180.88     0  16:11      112.96
  0082B_JUNCTION       JUNCTION    62.02   180.88   180.88     0  16:11      112.96
  0084A_JUNCTION       JUNCTION    14.84    52.94    52.94     0  18:57       44.44
  0084B_JUNCTION       JUNCTION    14.84    52.94    52.94     0  18:57       44.44
  0087A_JUNCTION       JUNCTION    44.45    98.49    97.29     0  01:34       86.34
  0087B_JUNCTION       JUNCTION    44.45    98.49    97.29     0  01:34       86.34
  0087C_JUNCTION       JUNCTION    44.42   102.60   101.40     0  01:34       86.30
  0091A_JUNCTION       JUNCTION    62.93   240.66   240.66     0  16:11      113.71
  0091B_JUNCTION       JUNCTION    62.93   240.66   240.66     0  16:11      113.71
  0096A_JUNCTION       JUNCTION    55.36   136.00   136.00     0  12:55      106.59
  0096B_JUNCTION       JUNCTION    55.36   136.00   136.00     0  12:55      106.59
  0097A_JUNCTION       JUNCTION    15.46    71.89    71.89     0  21:48       40.98
  0097B_JUNCTION       JUNCTION    15.46    71.89    71.89     0  21:48       40.98
  0099A_JUNCTION       JUNCTION    39.94   107.62   107.62     0  15:12       95.89
  0099B_JUNCTION       JUNCTION    39.94   107.62   107.62     0  15:12       95.89
  0100A_JUNCTION       JUNCTION     0.35    82.79    82.79     0  23:50       17.66
  0100B_JUNCTION       JUNCTION     0.35    76.38    76.38     0  23:50       17.66
  0102A_JUNCTION       JUNCTION    18.85    25.63    25.63     0  20:47       25.33
  0102B_JUNCTION       JUNCTION    18.85    25.63    25.63     0  20:47       25.33
  0103A_JUNCTION       JUNCTION    20.11    26.12    26.12     0  20:47       25.56
  0103B_JUNCTION       JUNCTION    20.11    26.12    26.12     0  20:47       25.56
  0104A_JUNCTION       JUNCTION     0.00     0.00     0.00     0  00:00        0.00
  0104B_JUNCTION       JUNCTION     0.00     0.00     0.00     0  00:00        0.00
  0106A_JUNCTION       JUNCTION     0.00     0.00     0.00     0  00:00        0.00
  0106B_JUNCTION       JUNCTION     0.00     0.00     0.00     0  00:00        0.00
  0107A_JUNCTION       JUNCTION     0.00     0.00     0.00     0  00:00        0.00
  0107B_JUNCTION       JUNCTION     0.00     0.00     0.00     0  00:00        0.00
  0108A_JUNCTION       JUNCTION    27.39   104.53   123.03     0  18:30       43.88
  0108B_JUNCTION       JUNCTION    27.39   104.53   123.03     0  18:30       43.88
  0108C_JUNCTION       JUNCTION    27.39   110.27   128.77     0  18:30       43.90
  0109A_JUNCTION       JUNCTION     0.84    35.02    35.02     0  23:37       34.11
  0109B_JUNCTION       JUNCTION     0.84    35.02    35.02     0  23:37       34.11
  0110A_JUNCTION       JUNCTION     6.24    91.37    91.37     0  21:34       86.65
  0110B_JUNCTION       JUNCTION     6.24    91.37    91.37     0  21:34       86.65
  0111_JUNCTION        JUNCTION     0.00     0.00     0.00     0  00:00        0.00
  0112A_JUNCTION       JUNCTION     0.00     0.00     0.00     0  00:00        0.00
  0112B_JUNCTION       JUNCTION     0.00     0.00     0.00     0  00:00        0.00
  0114A_JUNCTION       JUNCTION     0.00     0.00     0.00     0  00:00        0.00
  0114B_JUNCTION       JUNCTION     0.00     0.00     0.00     0  00:00        0.00
  0115A_JUNCTION       JUNCTION     0.00     0.00     0.00     0  00:00        0.00
  0115B_JUNCTION       JUNCTION     0.00     0.00     0.00     0  00:00        0.00
  0116A_JUNCTION       JUNCTION     0.00     0.00     0.00     0  00:00        0.00
  0116B_JUNCTION       JUNCTION     0.00     0.00     0.00     0  00:00        0.00
  0117A_JUNCTION       JUNCTION    20.38    26.49    26.49     0  20:47       25.99
  0117B_JUNCTION       JUNCTION    20.38    26.49    26.49     0  20:47       25.99
  0118A_JUNCTION       JUNCTION     0.00     0.01     0.01     1  00:00        0.01
  0118B_JUNCTION       JUNCTION     0.00     0.01     0.01     1  00:00        0.01
  0120A_JUNCTION       JUNCTION     0.00     0.00     0.00     0  00:00        0.00
  0120B_JUNCTION       JUNCTION     0.00     0.00     0.00     0  00:00        0.00
  0121A_JUNCTION       JUNCTION     0.00     0.00     0.00     0  00:00        0.00
  0121B_JUNCTION       JUNCTION     0.00     0.00     0.00     0  00:00        0.00
  0123A_JUNCTION       JUNCTION    42.47    90.26    90.26     0  12:55       68.45
  0123B_JUNCTION       JUNCTION    42.47    90.26    90.26     0  12:55       68.45
  0123C_JUNCTION       JUNCTION    42.47    90.26    90.26     0  12:55       68.45
  0127A_JUNCTION       JUNCTION     0.00     0.00     0.00     0  00:00        0.00
  0127B_JUNCTION       JUNCTION     0.00     0.00     0.00     0  00:00        0.00
  0128A_JUNCTION       JUNCTION     0.00     0.00     0.00     0  00:00        0.00
  0128B_JUNCTION       JUNCTION     0.00     0.00     0.00     0  00:00        0.00
  0129A_JUNCTION       JUNCTION     0.00     0.00     0.00     0  00:00        0.00
  0129B_JUNCTION       JUNCTION     0.00     0.00     0.00     0  00:00        0.00
  0130A_JUNCTION       JUNCTION     0.00     0.00     0.00     0  00:00        0.00
  0130B_JUNCTION       JUNCTION     0.00     0.00     0.00     0  00:00        0.00
  0133A_JUNCTION       JUNCTION     0.00     0.00     0.00     0  00:00        0.00
  0133B_JUNCTION       JUNCTION     0.00     0.00     0.00     0  00:00        0.00
  0135A_JUNCTION       JUNCTION    19.43    55.02    65.52     0  08:29       41.86
  0135B_JUNCTION       JUNCTION    19.43    55.02    65.52     0  08:29       41.86
  0137A_JUNCTION       JUNCTION     0.00     0.00     0.00     0  00:00        0.00
  0137B_JUNCTION       JUNCTION     0.00     0.00     0.00     0  00:00        0.00
  0139A_JUNCTION       JUNCTION    14.69    74.85    74.85     0  19:58       61.19
  0139B_JUNCTION       JUNCTION    14.69    74.85    74.85     0  19:58       61.19
  0140A_JUNCTION       JUNCTION     0.00     0.00     0.00     0  00:00        0.00
  0140B_JUNCTION       JUNCTION     0.00     0.00     0.00     0  00:00        0.00
  0141A_JUNCTION       JUNCTION     0.00     0.00     0.00     0  00:00        0.00
  0141B_JUNCTION       JUNCTION     0.00     0.00     0.00     0  00:00        0.00
  0144A_JUNCTION       JUNCTION     0.00     0.00     0.00     0  00:00        0.00
  0144B_JUNCTION       JUNCTION     0.00     0.00     0.00     0  00:00        0.00
  0148A_JUNCTION       JUNCTION    22.73    79.89    79.89     0  20:05       43.92
  0148B_JUNCTION       JUNCTION    22.73    79.89    79.89     0  20:05       43.92
  0150A_JUNCTION       JUNCTION     0.00     0.00     0.00     0  00:00        0.00
  0150B_JUNCTION       JUNCTION     0.00     0.00     0.00     0  00:00        0.00
  0153A_JUNCTION       JUNCTION     5.18    44.81    44.81     0  23:43       37.75
  0153B_JUNCTION       JUNCTION     5.18    44.81    44.81     0  23:43       37.75
  0154A_JUNCTION       JUNCTION     0.00     0.00     0.00     0  00:00        0.00
  0154B_JUNCTION       JUNCTION     0.00     0.00     0.00     0  00:00        0.00
  0155A_JUNCTION       JUNCTION     0.00     0.00     0.00     0  00:00        0.00
  0155B_JUNCTION       JUNCTION     0.00     0.00     0.00     0  00:00        0.00
  0156A_JUNCTION       JUNCTION    30.88    71.03    71.03     0  09:25       64.00
  0156B_JUNCTION       JUNCTION    30.88    71.03    71.03     0  09:25       64.00
  0157A_JUNCTION       JUNCTION     0.00     0.00     0.00     0  00:00        0.00
  0157B_JUNCTION       JUNCTION     0.00     0.00     0.00     0  00:00        0.00
  0158A_JUNCTION       JUNCTION    13.00    23.46    23.46     0  14:08       22.21
  0158B_JUNCTION       JUNCTION    13.00    23.46    23.46     0  14:08       22.21
  0159A_JUNCTION       JUNCTION     0.00     0.00     0.00     0  00:00        0.00
  0159B_JUNCTION       JUNCTION     0.00     0.00     0.00     0  00:00        0.00
  0160A_JUNCTION       JUNCTION     0.00     0.00     0.00     0  00:00        0.00
  0160B_JUNCTION       JUNCTION     0.00     0.00     0.00     0  00:00        0.00
  0161A_JUNCTION       JUNCTION     0.00     0.00     0.00     0  00:00        0.00
  0161B_JUNCTION       JUNCTION     0.00     0.00     0.00     0  00:00        0.00
  0162A_JUNCTION       JUNCTION     0.00     0.00     0.00     0  00:00        0.00
  0162B_JUNCTION       JUNCTION     0.00     0.00     0.00     0  00:00        0.00
  0163A_JUNCTION       JUNCTION     0.00     0.00     0.00     0  00:00        0.00
  0163B_JUNCTION       JUNCTION     0.00     0.00     0.00     0  00:00        0.00
  0164A_JUNCTION       JUNCTION    18.93    34.44    34.44     0  14:34       32.55
  0164B_JUNCTION       JUNCTION    18.93    34.44    34.44     0  14:34       32.55
  0165A_JUNCTION       JUNCTION     0.00     0.00     0.00     0  00:00        0.00
  0165B_JUNCTION       JUNCTION     0.00     0.00     0.00     0  00:00        0.00
  0166A_JUNCTION       JUNCTION     0.00     0.00     0.00     0  00:00        0.00
  0166B_JUNCTION       JUNCTION     0.00     0.00     0.00     0  00:00        0.00
  0173A_JUNCTION       JUNCTION    43.09   534.30   534.30     0  20:04      159.60
  0173B_JUNCTION       JUNCTION    43.63   342.09   342.09     0  20:04      129.03
  0173C_JUNCTION       JUNCTION    43.07   534.29   534.29     0  20:04      159.59
  J-10                 JUNCTION    18.04    75.07    98.59     0  11:39       28.62
  J-1003               JUNCTION     0.17     0.28    24.30     0  20:57        0.28
  J-1006               JUNCTION     0.26     0.42    23.93     0  20:59        0.42
  J-1021               JUNCTION     0.41     1.09    24.00     0  11:57        0.81
  J-1022               JUNCTION     0.31     0.67    23.72     0  22:15        0.67
  J-1031               JUNCTION     0.40     0.83    23.56     0  21:28        0.83
  J-1032               JUNCTION     0.51     0.99    23.55     0  21:28        0.99
  J-1033               JUNCTION     1.01     1.80    23.57     0  21:18        1.79
  J-1041               JUNCTION     0.00     0.00    21.90     0  00:00        0.00
  J-1042               JUNCTION     0.00     0.00    18.00     0  00:00        0.00
  J-1043               JUNCTION     0.12     0.21    22.85     0  21:34        0.21
  J-1044               JUNCTION     0.24     0.42    22.63     0  21:36        0.42
  J-1045               JUNCTION     0.00     0.00    23.11     0  00:00        0.00
  J-1046               JUNCTION     0.00     0.00    22.57     0  00:00        0.00
  J-1047               JUNCTION     0.00     0.00    22.51     0  00:00        0.00
  J-1048               JUNCTION     0.00     0.00    22.28     0  00:00        0.00
  J-1049               JUNCTION     0.00     0.00    22.76     0  00:00        0.00
  J-1050               JUNCTION     0.00     0.00    23.12     0  00:00        0.00
  J-1051               JUNCTION     0.00     0.00    23.22     0  00:00        0.00
  J-1053               JUNCTION     0.15     0.28    22.19     0  21:41        0.28
  J-1054               JUNCTION     0.55     2.68    23.89     0  14:08        1.00
  J-1056               JUNCTION     2.14     4.73    23.22     0  14:08        4.09
  J-1060               JUNCTION     0.08     0.18    25.06     0  20:47        0.15
  J-1061               JUNCTION     0.54     2.98    27.86     0  20:47        2.10
  J-1062               JUNCTION    33.39   365.99   379.88     0  11:08       69.67
  J-1063               JUNCTION     0.51     1.62    21.00     0  22:08        1.61
  J-1064               JUNCTION     0.49     1.55    21.03     0  22:08        1.54
  J-1065               JUNCTION     0.60     1.79    21.03     0  22:08        1.78
  J-1066               JUNCTION    29.32   219.70   236.50     0  11:41       66.12
  J-1067               JUNCTION    15.68   104.87   134.87     0  14:16       45.60
  J-1068               JUNCTION     3.88     8.86    21.05     0  22:08        8.85
  J-1069               JUNCTION    16.76    38.96    64.96     0  20:04       31.52
  J-1070               JUNCTION     0.60     1.81    21.06     0  22:08        1.79
  J-1071               JUNCTION     1.12     2.82    21.08     0  22:08        2.80
  J-1072               JUNCTION    16.77    41.52    67.52     0  20:04       31.74
  J-1073               JUNCTION     1.00     2.59    21.08     0  22:08        2.58
  J-1074               JUNCTION     0.94     2.47    21.08     0  22:08        2.46
  J-1075               JUNCTION     0.79     1.58    21.10     0  22:33        1.58
  J-1076               JUNCTION     9.10    30.19    67.19     0  20:04       21.03
  J-1077               JUNCTION     0.21     0.72    21.09     0  21:52        0.72
  J-1078               JUNCTION     0.18     0.63    21.10     0  21:51        0.63
  J-1079               JUNCTION     0.41     0.95    21.10     0  22:30        0.94
  J-1080               JUNCTION     0.72     1.65    21.10     0  21:51        1.65
  J-1081               JUNCTION     0.39     0.92    21.09     0  22:33        0.92
  J-1082               JUNCTION     1.12     2.37    21.10     0  21:51        2.36
  J-1083               JUNCTION     1.08     2.29    21.09     0  21:51        2.29
  J-1084               JUNCTION     0.01     0.08    21.07     0  22:43        0.08
  J-1085               JUNCTION     0.02     0.14    20.94     0  22:47        0.14
  J-1086               JUNCTION     0.01     0.06    20.92     0  22:51        0.06
  J-1087               JUNCTION     0.00     0.00     7.02     0  00:00        0.00
  J-1088               JUNCTION    21.10    68.43    90.01     0  12:55       46.81
  J-1089               JUNCTION     0.00     0.00     7.30     0  00:00        0.00
  J-1090               JUNCTION     0.00     0.00    16.90     0  00:00        0.00
  J-1091               JUNCTION     0.00     0.00    17.46     0  00:00        0.00
  J-1092               JUNCTION     0.00     0.00    17.26     0  00:00        0.00
  J-1093               JUNCTION     0.00     0.00    16.93     0  00:00        0.00
  J-1094               JUNCTION     0.00     0.00    15.81     0  00:00        0.00
  J-1095               JUNCTION     0.00     0.00    18.21     0  00:00        0.00
  J-1096               JUNCTION    21.10    68.00    89.58     0  12:55       46.70
  J-1097               JUNCTION    30.34   161.66   180.96     0  11:28       97.42
  J-1098               JUNCTION    32.46   144.76   160.76     0  18:29       93.71
  J-1099               JUNCTION    34.48   139.45   152.85     0  18:29       92.46
  J-11                 JUNCTION    17.36    36.85    61.58     0  20:04       30.16
  J-1100               JUNCTION    28.15   327.69   346.29     0  11:41       71.65
  J-1101               JUNCTION    14.63   106.88   138.58     0  14:16       44.08
  J-1726               JUNCTION     0.00     0.00    29.86     0  00:00        0.00
  J-1727               JUNCTION     0.00     0.00    31.51     0  00:00        0.00
  J-1728               JUNCTION     0.00     0.00    31.42     0  00:00        0.00
  J-1729               JUNCTION     0.00     0.00    31.08     0  00:00        0.00
  J-1730               JUNCTION     0.00     0.00    33.38     0  00:00        0.00
  J-1731               JUNCTION     0.00     0.00    33.67     0  00:00        0.00
  J-1732               JUNCTION     0.00     0.00    33.39     0  00:00        0.00
  J-1733               JUNCTION     0.00     0.00    30.68     0  00:00        0.00
  J-1734               JUNCTION     0.00     0.00    25.47     0  00:00        0.00
  J-1735               JUNCTION     0.00     0.00    31.94     0  00:00        0.00
  J-1736               JUNCTION     0.00     0.00    26.64     0  00:00        0.00
  J-1737               JUNCTION     0.00     0.00    28.77     0  00:00        0.00
  J-1738               JUNCTION     0.00     0.00    31.53     0  00:00        0.00
  J-1739               JUNCTION     0.00     0.00    30.00     0  00:00        0.00
  J-1740               JUNCTION     0.00     0.00    25.92     0  00:00        0.00
  J-1741               JUNCTION     0.00     0.00    23.26     0  00:00        0.00
  J-1742               JUNCTION     0.00     0.00    25.40     0  00:00        0.00
  J-1743               JUNCTION     0.00     0.00    31.00     0  00:00        0.00
  J-1744               JUNCTION     0.00     0.00    28.39     0  00:00        0.00
  J-1745               JUNCTION     0.00     0.00    35.08     0  00:00        0.00
  J-1746               JUNCTION     0.00     0.00    36.35     0  00:00        0.00
  J-1747               JUNCTION     0.00     0.00    32.02     0  00:00        0.00
  J-1748               JUNCTION     0.07     3.31    37.45     0  22:24        0.83
  J-1749               JUNCTION     0.03     0.33    34.30     1  00:00        0.33
  J-1750               JUNCTION     0.03     0.33    34.55     0  23:06        0.33
  J-1751               JUNCTION     0.02     0.24    34.50     1  00:00        0.24
  J-1752               JUNCTION     0.00     0.00    33.03     0  00:00        0.00
  J-1753               JUNCTION     0.00     0.06    29.65     1  00:00        0.06
  J-1754               JUNCTION     0.00     0.00    33.12     0  00:00        0.00
  J-1755               JUNCTION     0.00     0.21    29.97     1  00:00        0.21
  J-1756               JUNCTION     0.00     0.00    28.56     0  00:00        0.00
  J-1757               JUNCTION     0.00     0.00    31.10     0  00:00        0.00
  J-1758               JUNCTION     0.00     0.00    31.30     0  00:00        0.00
  J-1759               JUNCTION     0.09     3.50    30.90     0  23:54        3.42
  J-1760               JUNCTION     0.08     3.53    33.45     0  22:56        1.16
  J-1761               JUNCTION     0.11     3.94    30.96     0  23:54        3.82
  J-1762               JUNCTION     0.09     3.38    30.93     0  23:54        3.29
  J-1763               JUNCTION     0.03     1.89    30.88     0  23:54        1.86
  J-1764               JUNCTION     0.01     0.11    30.84     1  00:00        0.11
  J-1765               JUNCTION     0.00     0.05    30.38     0  23:20        0.05
  J-1766               JUNCTION     0.11     3.88    30.97     0  23:54        3.74
  J-1767               JUNCTION     0.15     5.30    31.39     0  23:53        4.58
  J-1768               JUNCTION     0.01     2.26    31.48     0  23:53        1.44
  J-1769               JUNCTION     0.00     0.00    29.93     0  00:00        0.00
  J-1770               JUNCTION     0.00     0.00    29.89     0  00:00        0.00
  J-1771               JUNCTION     0.00     0.00    30.11     0  00:00        0.00
  J-1772               JUNCTION     0.00     0.00    29.86     0  00:00        0.00
  J-1773               JUNCTION     0.00     0.00    29.67     0  00:00        0.00
  J-1774               JUNCTION     0.00     0.00    28.97     0  00:00        0.00
  J-1775               JUNCTION     0.00     0.00    31.24     0  00:00        0.00
  J-1776               JUNCTION     0.00     0.00    33.12     0  00:00        0.00
  J-1777               JUNCTION     0.00     0.00    32.77     0  00:00        0.00
  J-1778               JUNCTION     0.53     0.97    27.20     0  12:39        0.83
  J-1779               JUNCTION     0.59     0.96    27.12     0  10:04        0.90
  J-1780               JUNCTION     0.83     1.15    27.06     0  10:04        1.12
  J-1781               JUNCTION     0.10     0.37    27.07     0  10:05        0.34
  J-1782               JUNCTION     0.14     0.28    27.04     0  11:00        0.28
  J-1783               JUNCTION     0.85     1.17    27.06     0  10:04        1.14
  J-1784               JUNCTION     0.83     1.15    27.06     0  10:04        1.12
  J-1785               JUNCTION    23.15    83.52   109.51     0  13:14       66.37
  J-1786               JUNCTION    23.12    84.04   110.06     0  13:14       66.25
  J-1787               JUNCTION    22.79    81.39   107.75     0  13:14       66.05
  J-1788               JUNCTION     0.05     0.20    27.06     0  11:06        0.20
  J-1789               JUNCTION     1.14     1.52    27.09     0  11:11        1.48
  J-1790               JUNCTION     1.16     1.59    27.14     0  11:11        1.52
  J-1791               JUNCTION     1.08     1.44    27.07     0  11:11        1.41
  J-1792               JUNCTION     1.32     1.69    27.07     0  11:11        1.66
  J-1793               JUNCTION    23.36    83.72   109.49     0  13:14       66.23
  J-1794               JUNCTION     0.00     0.09    29.79     1  00:00        0.09
  J-1795               JUNCTION     0.27     0.38    30.32     0  08:30        0.37
  J-1796               JUNCTION    18.98    47.71    75.87     0  18:29       44.23
  J-1797               JUNCTION     1.96     3.25    31.44     0  08:30        3.04
  J-1798               JUNCTION     0.69     1.49    31.00     0  08:30        1.30
  J-1799               JUNCTION     0.12     0.21    30.32     0  08:31        0.20
  J-1800               JUNCTION     0.28     7.24    36.30     0  12:39        3.18
  J-1801               JUNCTION     0.23     0.33    29.30     0  09:10        0.33
  J-1802               JUNCTION     0.34     6.57    35.38     0  12:39        3.20
  J-1803               JUNCTION    17.75    47.69    77.20     0  18:29       43.80
  J-1804               JUNCTION    22.29    79.28   105.98     0  20:00       62.90
  J-1805               JUNCTION    18.42    48.26    77.09     0  18:29       44.42
  J-1806               JUNCTION    18.47    47.53    76.34     0  18:29       43.68
  J-1807               JUNCTION    18.34    47.06    76.20     0  20:05       36.07
  J-1808               JUNCTION    18.09    50.87    80.51     0  20:05       39.86
  J-1809               JUNCTION    16.39    58.77    90.83     0  20:05       47.77
  J-1810               JUNCTION     0.45     1.14    28.23     0  11:00        1.13
  J-1811               JUNCTION    21.97    73.89   100.71     0  20:00       59.38
  J-1812               JUNCTION     0.34     6.24    34.65     0  12:39        3.32
  J-1813               JUNCTION     0.14     0.46    31.65     0  11:02        0.44
  J-1814               JUNCTION     0.20     0.64    32.45     0  20:57        0.62
  J-1815               JUNCTION     0.39     0.94    32.53     0  20:56        0.94
  J-1816               JUNCTION     0.47     6.08    33.99     0  12:40        3.76
  J-1817               JUNCTION     0.00     0.05    29.21     1  00:00        0.05
  J-1818               JUNCTION     1.77    12.41    42.56     0  18:29       12.36
  J-1819               JUNCTION     2.44    13.68    42.99     0  18:29       13.63
  J-1820               JUNCTION     4.98     6.67    29.21     0  12:40        6.43
  J-1821               JUNCTION     5.49     7.42    29.45     0  12:40        6.99
  J-1822               JUNCTION     2.25    14.66    44.30     0  18:30       14.66
  J-1823               JUNCTION     2.49    15.16    44.52     0  18:30       15.12
  J-1824               JUNCTION     2.37    15.14    44.67     0  18:30       15.05
  J-1825               JUNCTION     2.64    15.91    45.19     0  18:30       15.87
  J-1826               JUNCTION     1.12     6.30    33.27     0  12:40        4.57
  J-1827               JUNCTION     1.20     6.30    33.18     0  12:40        4.62
  J-1828               JUNCTION     4.22     6.47    29.83     0  12:40        5.91
  J-1829               JUNCTION     3.72     6.04    29.93     0  12:40        5.43
  J-1830               JUNCTION     2.42    15.00    44.40     0  18:30       14.95
  J-1831               JUNCTION     0.02     0.03    28.98     1  00:00        0.03
  J-1832               JUNCTION     2.30    13.71    42.72     0  18:30       13.44
  J-1833               JUNCTION     2.16    14.49    44.13     0  18:30       14.23
  J-1834               JUNCTION     0.38     4.84    30.23     0  20:02        2.11
  J-1835               JUNCTION     0.57     4.05    29.21     0  20:02        2.29
  J-1836               JUNCTION     0.21     3.54    29.06     0  20:47        1.86
  J-1838               JUNCTION     2.32    55.15    83.30     0  01:34       18.65
  J-1839               JUNCTION    21.01    47.43    73.49     0  18:29       45.33
  J-1840               JUNCTION    21.13    46.80    72.73     0  18:29       44.89
  J-1841               JUNCTION    20.72    43.90    70.25     0  18:29       42.42
  J-1842               JUNCTION     0.01     0.01    27.89     1  00:00        0.01
  J-1843               JUNCTION     0.02     0.02    27.82     0  09:02        0.02
  J-1844               JUNCTION    21.93    38.72    63.78     0  18:29       37.96
  J-1845               JUNCTION    20.96    34.45    60.49     0  18:29       33.85
  J-1846               JUNCTION    16.51    26.34    51.41     0  20:04       25.60
  J-1847               JUNCTION    21.84    37.50    62.65     0  18:29       36.80
  J-1848               JUNCTION     0.02     0.40    30.54     0  23:49        0.39
  J-1849               JUNCTION     0.03     0.44    30.53     0  23:50        0.44
  J-1850               JUNCTION     0.05     1.66    31.64     0  23:52        0.62
  J-1851               JUNCTION     0.18     5.34    34.45     0  22:35        3.38
  J-1852               JUNCTION     0.15     5.53    34.90     0  22:35        3.00
  J-1853               JUNCTION     0.00     0.00    30.53     0  23:51        0.00
  J-1854               JUNCTION     0.01     0.01    25.71     0  10:59        0.01
  J-1855               JUNCTION     0.06     0.10    23.62     1  00:00        0.10
  J-1856               JUNCTION     0.04     0.08    23.62     1  00:00        0.08
  J-1857               JUNCTION     0.00     0.00    23.64     0  00:00        0.00
  J-1858               JUNCTION     1.48    49.45    74.84     0  22:38       28.06
  J-1859               JUNCTION     0.00     0.00    22.64     0  00:00        0.00
  J-1860               JUNCTION     1.53    50.05    75.26     0  22:38       28.38
  J-1861               JUNCTION     0.00     0.00    27.72     0  00:00        0.00
  J-1862               JUNCTION     0.00     0.00    27.81     0  00:00        0.00
  J-1863               JUNCTION     0.00     0.00    27.34     0  00:00        0.00
  J-1864               JUNCTION     0.00     0.00    27.56     0  00:00        0.00
  J-1865               JUNCTION     0.00     0.00    26.02     0  00:00        0.00
  J-1866               JUNCTION     0.00     0.00    25.62     0  00:00        0.00
  J-1867               JUNCTION     0.00     0.00    20.78     0  00:00        0.00
  J-1868               JUNCTION     0.00     0.00    22.49     0  00:00        0.00
  J-1869               JUNCTION     0.00     0.00    22.97     0  00:00        0.00
  J-1870               JUNCTION     0.00     0.00    27.45     0  00:00        0.00
  J-1871               JUNCTION     0.00     0.00    28.25     0  00:00        0.00
  J-1872               JUNCTION     1.95    22.53    53.29     0  20:04       10.00
  J-1873               JUNCTION     1.17    22.72    54.61     0  20:04        8.84
  J-1874               JUNCTION     0.18    10.73    42.87     0  20:54        6.35
  J-1875               JUNCTION     3.04     9.91    35.70     0  20:54        9.44
  J-1876               JUNCTION     1.80     7.82    35.44     0  20:40        7.38
  J-1878               JUNCTION     0.09     0.20    29.12     0  20:30        0.18
  J-1879               JUNCTION     0.19     0.47    28.95     0  20:35        0.46
  J-1881               JUNCTION     0.14     0.29    25.85     0  20:47        0.29
  J-1882               JUNCTION     0.32     1.20    20.92     0  22:41        1.20
  J-1883               JUNCTION     0.21     0.82    20.93     0  22:41        0.82
  J-1885               JUNCTION     0.26     0.95    20.93     0  22:41        0.95
  J-1886               JUNCTION     0.33     1.14    20.93     0  22:41        1.14
  J-1934               JUNCTION     0.00     0.00    35.05     0  00:00        0.00
  J-1935               JUNCTION     0.01     0.06    20.92     0  22:51        0.06
  J-2999               JUNCTION     0.02     0.32    28.83     0  23:52        0.32
  J-3000               JUNCTION     0.03     0.54    28.90     0  23:51        0.54
  J-3003               JUNCTION     1.17     5.43    33.41     0  14:34        4.37
  J-3004               JUNCTION     1.38     5.87    33.55     0  14:34        4.79
  J-4                  JUNCTION    18.56    48.22    76.89     0  18:29       44.58
  J-6                  JUNCTION     0.27     0.28    28.97     1  00:00        0.28
  J-771                JUNCTION     3.79    70.10   100.83     0  22:04       46.08
  J-772                JUNCTION     2.35    39.97    71.90     0  22:38       33.58
  J-774                JUNCTION     2.31    39.27    71.13     0  22:38       33.09
  J-779                JUNCTION     1.34    26.83    58.81     0  22:10       18.78
  J-781                JUNCTION     0.38     7.22    39.33     0  23:59        4.95
  J-782                JUNCTION     0.17     3.47    36.21     0  22:49        2.68
  J-783                JUNCTION     0.27     5.59    37.74     0  23:59        3.68
  J-784                JUNCTION     0.20     4.41    36.98     0  23:59        2.94
  J-786                JUNCTION     0.24     5.03    37.30     0  23:59        3.31
  J-787                JUNCTION     0.00     0.01    35.39     0  23:30        0.01
  J-788                JUNCTION     0.00     0.00    32.53     0  00:00        0.00
  J-789                JUNCTION     0.00     0.00    33.97     0  00:00        0.00
  J-790                JUNCTION     0.22     4.75    37.13     0  23:59        3.14
  J-791                JUNCTION     0.00     0.00    32.87     0  00:00        0.00
  J-792                JUNCTION     0.00     0.00    34.45     0  00:00        0.00
  J-793                JUNCTION     0.00     0.00    34.92     0  00:00        0.00
  J-794                JUNCTION     0.00     0.00    34.95     0  00:00        0.00
  J-795                JUNCTION     0.00     0.00    33.28     0  00:00        0.00
  J-796                JUNCTION     0.00     0.00    33.02     0  00:00        0.00
  J-797                JUNCTION     0.00     0.00    31.68     0  00:00        0.00
  J-799                JUNCTION     0.00     0.00    31.42     0  00:00        0.00
  J-8                  JUNCTION    16.77    41.87    67.88     0  20:04       31.77
  J-800                JUNCTION     0.00     0.00    33.64     0  00:00        0.00
  J-801                JUNCTION     0.00     0.00    32.13     0  00:00        0.00
  J-802                JUNCTION     0.00     0.00    32.08     0  00:00        0.00
  J-803                JUNCTION     0.00     0.00    35.07     0  00:00        0.00
  J-804                JUNCTION     0.00     0.00    33.64     0  00:00        0.00
  J-808                JUNCTION     0.00     0.00    34.72     0  00:00        0.00
  J-810                JUNCTION     0.00     0.00    35.72     0  00:00        0.00
  J-816                JUNCTION     0.00     0.00    35.43     0  00:00        0.00
  J-817                JUNCTION     0.00     0.00    35.64     0  00:00        0.00
  J-818                JUNCTION     0.00     0.00    35.53     0  00:00        0.00
  J-824                JUNCTION     3.56    42.93    73.49     0  23:50       28.57
  J-827                JUNCTION     0.10     5.01    37.45     0  22:59        1.67
  J-828                JUNCTION     0.00     0.00    35.43     0  00:00        0.00
  J-829                JUNCTION     0.00     0.00    35.06     0  00:00        0.00
  J-830                JUNCTION     2.14    35.97    66.39     0  23:50       19.34
  J-831                JUNCTION     2.16    34.79    65.00     0  23:50       19.07
  J-833                JUNCTION     0.00     0.00    24.25     0  00:00        0.00
  J-834                JUNCTION     0.00     0.00    28.70     0  00:00        0.00
  J-835                JUNCTION     0.00     0.00    24.04     0  00:00        0.00
  J-836                JUNCTION     0.00     0.00    24.44     0  00:00        0.00
  J-837                JUNCTION     0.00     0.00    22.67     0  00:00        0.00
  J-838                JUNCTION     0.00     0.00    21.83     0  00:00        0.00
  J-839                JUNCTION     0.00     0.00    21.50     0  00:00        0.00
  J-840                JUNCTION     0.00     0.00    31.79     0  00:00        0.00
  J-841                JUNCTION     0.28     4.27    33.79     0  18:57        1.33
  J-842                JUNCTION     0.25     0.98    30.50     0  23:25        0.91
  J-843                JUNCTION     0.00     0.00    32.51     0  00:00        0.00
  J-844                JUNCTION     0.04     0.18    32.62     0  18:49        0.18
  J-845                JUNCTION     0.00     0.00    24.15     0  00:00        0.00
  J-846                JUNCTION     0.00     0.00    30.50     0  00:00        0.00
  J-847                JUNCTION     0.00     0.00    29.94     0  00:00        0.00
  J-848                JUNCTION     0.00     0.00    29.85     0  00:00        0.00
  J-849                JUNCTION     0.01     0.14    32.19     0  23:31        0.14
  J-850                JUNCTION     0.35     2.52    31.70     0  20:47        1.23
  J-851                JUNCTION     0.04     0.33    34.73     0  21:39        0.28
  J-852                JUNCTION     0.20     0.78    30.41     0  23:26        0.77
  J-853                JUNCTION     0.17     0.66    30.39     0  23:36        0.65
  J-854                JUNCTION     0.07     0.32    31.76     0  23:36        0.32
  J-855                JUNCTION     0.15     0.54    31.81     0  23:18        0.53
  J-856                JUNCTION     0.00     0.00    32.04     0  00:00        0.00
  J-857                JUNCTION     0.00     0.00    33.10     0  00:00        0.00
  J-858                JUNCTION     0.10     0.39    30.16     0  18:53        0.39
  J-862                JUNCTION     0.00     0.00    30.58     0  00:00        0.00
  J-863                JUNCTION     0.00     0.00    31.53     0  00:00        0.00
  J-865                JUNCTION     0.13     0.53    28.74     0  23:41        0.53
  J-871                JUNCTION     0.08    15.30    41.37     0  23:59        0.76
  J-873                JUNCTION     0.00     0.00    30.13     0  00:00        0.00
  J-874                JUNCTION     0.00     0.00    29.15     0  00:00        0.00
  J-875                JUNCTION     0.00     0.00    29.13     0  00:00        0.00
  J-876                JUNCTION     0.00     0.00    29.10     0  00:00        0.00
  J-877                JUNCTION     0.00     0.00    31.48     0  00:00        0.00
  J-884                JUNCTION     0.00     0.00    31.19     0  00:00        0.00
  J-885                JUNCTION     0.00     0.00    31.35     0  00:00        0.00
  J-889                JUNCTION    46.43   198.38   218.98     0  16:11       92.62
  J-890                JUNCTION    46.10   172.97   193.29     0  16:11       92.72
  J-891                JUNCTION     0.61     6.83    27.11     0  19:29        2.65
  J-892                JUNCTION     0.05     0.21    21.82     0  23:41        0.21
  J-893                JUNCTION    20.05    68.07    90.52     0  20:47       59.16
  J-894                JUNCTION    22.09    69.75    89.72     0  20:47       61.04
  J-896                JUNCTION    22.29    69.64    89.30     0  20:47       60.95
  J-897                JUNCTION     0.15     0.24    20.77     0  16:50        0.24
  J-898                JUNCTION    22.87    72.73    93.11     0  20:47       64.08
  J-899                JUNCTION    23.15    73.33    93.49     0  20:47       64.55
  J-9                  JUNCTION     0.10     4.84    35.34     0  23:04        2.41
  J-900                JUNCTION     2.34    13.25    34.85     0  13:06        8.44
  J-902                JUNCTION    47.45   160.17   178.36     0  16:11       94.66
  J-905                JUNCTION    20.88    66.53    87.04     0  20:47       58.36
  J-916                JUNCTION    17.83    66.52    85.73     0  14:34       56.48
  J-920                JUNCTION    22.05    65.44    83.45     0  20:47       58.56
  J-922                JUNCTION    22.45    78.29    94.89     0  14:34       67.20
  J-928                JUNCTION    23.86    80.83    96.38     0  14:34       70.00
  J-929                JUNCTION    12.82    47.23    69.21     0  16:49       42.39
  J-931                JUNCTION    43.93   110.53   126.70     0  16:11       91.79
  J-932                JUNCTION    13.54    46.77    67.70     0  17:00       42.66
  J-933                JUNCTION    13.56    47.68    68.64     0  17:00       42.80
  J-934                JUNCTION    13.51    48.08    69.15     0  17:00       43.20
  J-935                JUNCTION    14.86    51.41    73.15     0  18:29       50.49
  J-936                JUNCTION    15.04    51.77    73.33     0  18:29       50.81
  J-937                JUNCTION    37.97    91.64   111.38     0  16:50       85.66
  J-938                JUNCTION    15.24    51.47    73.24     0  20:47       50.10
  J-939                JUNCTION    37.55    91.30   111.28     0  16:50       85.23
  J-941                JUNCTION    37.07    90.74   111.29     0  16:50       84.68
  J-942                JUNCTION    36.90    90.53   110.86     0  16:50       84.52
  J-943                JUNCTION    37.02    90.69   111.10     0  16:50       84.63
  J-944                JUNCTION    16.62    55.85    78.00     0  20:47       50.49
  J-945                JUNCTION    24.66    81.38    97.34     0  14:34       73.50
  J-946                JUNCTION    19.21    61.12    81.72     0  20:47       54.79
  J-947                JUNCTION    24.27    81.10    97.58     0  14:34       73.16
  J-951                JUNCTION     0.56     3.82    28.70     0  20:47        2.41
  J-952                JUNCTION     1.21     4.82    28.83     0  20:47        3.27
  J-953                JUNCTION     0.00     0.09    16.87     0  23:51        0.09
  J-954                JUNCTION     0.00     0.00    18.83     0  00:00        0.00
  J-955                JUNCTION     0.00     0.00    17.44     0  00:00        0.00
  J-956                JUNCTION     0.00     0.00    19.38     0  00:00        0.00
  J-958                JUNCTION     0.00     0.00    19.08     0  00:00        0.00
  J-959                JUNCTION     0.00     0.00     5.11     0  00:00        0.00
  J-960                JUNCTION     0.00     0.00    19.01     0  00:00        0.00
  J-961                JUNCTION    43.50   120.01   134.81     0  12:55       91.77
  J-962                JUNCTION    43.00   118.58   133.98     0  12:55       91.15
  J-963                JUNCTION     3.50     7.89    28.66     0  20:47        6.18
  J-964                JUNCTION    44.42   151.11   167.01     0  12:55       92.11
  J-965                JUNCTION    44.24   152.52   168.68     0  12:55       91.88
  J-967                JUNCTION    42.84   150.83   168.82     0  12:55       90.09
  J-968                JUNCTION    42.71   151.74   169.84     0  12:55       89.96
  J-969                JUNCTION     1.08    32.14    49.45     0  18:57       10.67
  J-971                JUNCTION     3.29    42.04    56.56     0  18:57       16.23
  J-972                JUNCTION     4.13     8.69    28.47     0  20:47        6.85
  J-973                JUNCTION     4.00     8.40    28.32     0  20:47        6.65
  J-980                JUNCTION     3.29     6.38    27.08     0  20:47        5.59
  J-981                JUNCTION     4.05     7.31    26.98     0  20:47        6.62
[...]
  0037A                    0.00           0      0.00      0.00      0.00     0.000      0.00    0.0    0.0
  0037B                    0.00           0      0.00      0.00      0.00     0.000      0.00    0.0    0.0
  0038A                    9.86         129      0.00      1.43      3.39     0.094     17.23    0.0    0.4
  0038B                    9.86         129      0.00      1.79      3.79     0.117     21.75    0.0    0.3
  0039A                    8.68         219      0.00      0.27      1.02     0.015      1.10    0.0    0.8
  0039B                    8.68         219      0.00      0.27      1.02     0.015      1.10    0.0    0.8
  0040A                    0.00           0      0.00      0.00      0.00     0.000      0.00    0.0    0.0
  0040B                    0.00           0      0.00      0.00      0.00     0.000      0.00    0.0    0.0
  0041A                    0.00           0      0.00      0.00      0.00     0.000      0.00    0.0    0.0
  0041B                    0.00           0      0.00      0.00      0.00     0.000      0.00    0.0    0.0
  0042A                   21.47          48      0.00      0.95      3.05     0.127     11.41    0.0    0.2
  0042B                   21.47          48      0.00      0.95      3.05     0.127     11.41    0.0    0.2
  0043A                    0.00           0      0.00      0.00      0.00     0.000      0.00    0.0    0.0
  0043B                    0.00           0      0.00      0.00      0.00     0.000      0.00    0.0    0.0
  0044A                    0.00           0      0.00      0.00      0.00     0.000      0.00    0.0    0.0
  0044B                    0.00           0      0.00      0.00      0.00     0.000      0.00    0.0    0.0
  0045A                    0.00           0      0.00      0.00      0.00     0.000      0.00    0.0    0.0
  0045B                    0.00           0      0.00      0.00      0.00     0.000      0.00    0.0    0.0
  0046A                    0.00           0      0.00      0.00      0.00     0.000      0.00    0.0    0.0
  0046B                    0.00           0      0.00      0.00      0.00     0.000      0.00    0.0    0.0
  0047A                    0.00           0      0.00      0.00      0.00     0.000      0.00    0.0    0.0
  0047B                    0.00           0      0.00      0.00      0.00     0.000      0.00    0.0    0.0
  0048A                    0.00           0      0.00      0.00      0.00     0.000      0.00    0.0    0.0
  0048B                    0.00           0      0.00      0.00      0.00     0.000      0.00    0.0    0.0
  0049A                    0.00           0      0.00      0.00      0.00     0.000      0.00    0.0    0.0
  0049B                    0.00           0      0.00      0.00      0.00     0.000      0.00    0.0    0.0
  0050A                    4.94         257      0.00      0.34      3.17     0.011      1.75    0.0    0.5
  0050B                    4.94         257      0.00      0.34      3.17     0.011      1.75    0.0    0.5
  0051A                    0.00           0      0.00      0.00      0.00     0.000      0.00    0.0    0.0
  0051B                    0.00           0      0.00      0.00      0.00     0.000      0.00    0.0    0.0
  0053A                    0.00           0      0.00      0.00      0.00     0.000      0.00    0.0    0.0
  0053B                    0.00           0      0.00      0.00      0.00     0.000      0.00    0.0    0.0
  0054A                    0.00           0      0.00      0.00      0.00     0.000      0.00    0.0    0.0
  0054B                    0.00           0      0.00      0.00      0.00     0.000      0.00    0.0    0.0
  0055A                   95.44           2      0.00      0.03      2.45     0.018      1.10    0.0    0.0
  0055B                   95.44           2      0.00      0.03      2.45     0.018      1.10    0.0    0.0
  0056A                    0.00           0      0.00      0.00      0.00     0.000      0.00    0.0    0.0
  0056B                    0.00           0      0.00      0.00      0.00     0.000      0.00    0.0    0.0
  0057A                    4.31         272      0.00      0.23      1.28     0.006      1.34    0.0    1.7
  0057B                    4.31         272      0.00      0.23      1.28     0.006      1.34    0.0    1.7
  0058A                    0.00           0      0.00      0.00      0.00     0.000      0.00    0.0    0.0
  0058B                    0.00           0      0.00      0.00      0.00     0.000      0.00    0.0    0.0
  0060A                    0.00           0      0.00      0.00      0.00     0.000      0.00    0.0    0.0
  0060B                    0.00           0      0.00      0.00      0.00     0.000      0.00    0.0    0.0
  0063A                    0.00           0      0.00      0.00      0.00     0.000      0.00    0.0    0.0
  0063B                    0.00           0      0.00      0.00      0.00     0.000      0.00    0.0    0.0
  0064A                   42.83          82      0.00      0.93      9.19     0.273     37.66    0.0    0.1
  0064B                   42.83          82      0.00      0.93      9.19     0.273     37.66    0.0    0.1
  0064C                   42.83          82      0.00      0.93      9.19     0.273     37.66    0.0    0.1
  0065A                    0.00           0      0.00      0.00      0.00     0.000      0.00    0.0    0.0
  0065B                    0.00           0      0.00      0.00      0.00     0.000      0.00    0.0    0.0
  0066A                    0.00           0      0.00      0.00      0.00     0.000      0.00    0.0    0.0
  0066B                    0.00           0      0.00      0.00      0.00     0.000      0.00    0.0    0.0
  0070A                    0.00           0      0.00      0.00      0.00     0.000      0.00    0.0    0.0
  0070B                    0.00           0      0.00      0.00      0.00     0.000      0.00    0.0    0.0
  0071A                    0.00           0      0.00      0.00      0.00     0.000      0.00    0.0    0.0
  0071B                    0.00           0      0.00      0.00      0.00     0.000      0.00    0.0    0.0
  0072A                    0.00           0      0.00      0.00      0.00     0.000      0.00    0.0    0.0
  0072B                    0.00           0      0.00      0.00      0.00     0.000      0.00    0.0    0.0
  0073A                    0.00           0      0.00      0.00      0.00     0.000      0.00    0.0    0.0
  0073B                    0.00           0      0.00      0.00      0.00     0.000      0.00    0.0    0.0
  0078A                   48.33         883      0.00      0.65      4.14     0.229     42.14    0.0    0.0
  0078B                   48.33         886      0.00      0.63      4.40     0.224     40.56    0.0    0.0
  0078C                   48.33         886      0.00      0.62      4.26     0.221     40.14    0.0    0.0
  0080A                   25.49         148      0.00      0.56      1.39     0.096     27.88    0.0    0.1
  0080B                   25.49         148      0.00      0.56      1.39     0.096     27.88    0.0    0.1
  0082A                   18.76         163      0.00      0.81      2.21     0.101     31.42    0.0    0.0
  0082B                   18.76         163      0.00      0.81      2.21     0.101     31.42    0.0    0.0
  0084A                   10.18         265      0.00      0.52      2.32     0.034      4.19    0.0    0.3
  0084B                   10.18         265      0.00      0.52      2.32     0.034      4.19    0.0    0.3
  0087A                   99.96           1      0.00      0.52      1.25     0.259     40.42    0.0    2.2
  0087B                   99.96           1      0.00      0.52      1.25     0.259     40.42    0.0    2.2
  0087C                   99.96           1      0.00      0.52      1.08     0.259     40.40    0.0    2.5
  0091A                   16.03         318      0.00      0.46      2.79     0.049     14.65    0.0    0.0
  0091B                   16.03         318      0.00      0.46      2.79     0.049     14.65    0.0    0.0
  0096A                    0.00           0      0.00      0.00      0.00     0.000      0.00    0.0    0.0
  0096B                    0.00           0      0.00      0.00      0.00     0.000      0.00    0.0    0.0
  0097A                   12.41         489      0.00      0.45      2.11     0.036      3.59    0.0    0.3
  0097B                   12.41         489      0.00      0.45      2.11     0.036      3.59    0.0    0.3
  0099A                    9.62          93      0.00      1.08      3.19     0.072     17.77    0.0    0.3
  0099B                    9.62          93      0.00      1.08      3.19     0.072     17.77    0.0    0.3
  0100A                    0.17          11      0.00      0.93      1.33     0.001      0.04    0.0   33.8
  0100B                    0.16          12      0.00      0.72      1.45     0.001      0.02    0.0   31.3
  0102A                    0.00           0      0.00      0.00      0.00     0.000      0.00    0.0    0.0
  0102B                    0.00           0      0.00      0.00      0.00     0.000      0.00    0.0    0.0
  0103A                    0.00           0      0.00      0.00      0.00     0.000      0.00    0.0    0.0
  0103B                    0.00           0      0.00      0.00      0.00     0.000      0.00    0.0    0.0
  0104A                    0.00           0      0.00      0.00      0.00     0.000      0.00    0.0    0.0
  0104B                    0.00           0      0.00      0.00      0.00     0.000      0.00    0.0    0.0
  0106A                    0.00           0      0.00      0.00      0.00     0.000      0.00    0.0    0.0
  0106B                    0.00           0      0.00      0.00      0.00     0.000      0.00    0.0    0.0
  0107A                    0.00           0      0.00      0.00      0.00     0.000      0.00    0.0    0.0
  0107B                    0.00           0      0.00      0.00      0.00     0.000      0.00    0.0    0.0
  0108A                    2.22           2      0.00      0.04      1.30     0.001      0.08    0.0    0.0
  0108B                    2.22           2      0.00      0.04      1.30     0.001      0.08    0.0    0.0
  0108C                    4.21           1      0.00      0.01      0.02     0.000      0.03    0.0    0.0
  0109A                    0.00           0      0.00      0.00      0.00     0.000      0.00    0.0    0.0
  0109B                    0.00           0      0.00      0.00      0.00     0.000      0.00    0.0    0.0
  0110A                    1.38          73      0.00      1.00      2.83     0.009      1.63    0.0    0.0
  0110B                    1.38          73      0.00      1.00      2.83     0.009      1.63    0.0    0.0
  0111                     0.00           0      0.00      0.00      0.00     0.000      0.00    0.0    0.0
  0112A                    0.00           0      0.00      0.00      0.00     0.000      0.00    0.0    0.0
  0112B                    0.00           0      0.00      0.00      0.00     0.000      0.00    0.0    0.0
  0114A                    0.00           0      0.00      0.00      0.00     0.000      0.00    0.0    0.0
  0114B                    0.00           0      0.00      0.00      0.00     0.000      0.00    0.0    0.0
  0115A                    0.00           0      0.00      0.00      0.00     0.000      0.00    0.0    0.0
  0115B                    0.00           0      0.00      0.00      0.00     0.000      0.00    0.0    0.0
  0116A                    0.00           0      0.00      0.00      0.00     0.000      0.00    0.0    0.0
  0116B                    0.00           0      0.00      0.00      0.00     0.000      0.00    0.0    0.0
  0117A                    0.00           0      0.00      0.00      0.00     0.000      0.00    0.0    0.0
  0117B                    0.00           0      0.00      0.00      0.00     0.000      0.00    0.0    0.0
  0118A                    0.00           0      0.00      0.00      0.00     0.000      0.00    0.0    0.0
  0118B                    0.00           0      0.00      0.00      0.00     0.000      0.00    0.0    0.0
  0120A                    0.00           0      0.00      0.00      0.00     0.000      0.00    0.0    0.0
  0120B                    0.00           0      0.00      0.00      0.00     0.000      0.00    0.0    0.0
  0121A                    0.00           0      0.00      0.00      0.00     0.000      0.00    0.0    0.0
  0121B                    0.00           0      0.00      0.00      0.00     0.000      0.00    0.0    0.0
  0123A                    5.68          68      0.00      1.19      1.56     0.044      7.80    0.0    0.0
  0123B                    5.68          68      0.00      1.19      1.56     0.044      7.80    0.0    0.0
  0123C                    5.68          68      0.00      1.19      1.56     0.044      7.80    0.0    0.0
  0127A                    0.00           0      0.00      0.00      0.00     0.000      0.00    0.0    0.0
  0127B                    0.00           0      0.00      0.00      0.00     0.000      0.00    0.0    0.0
  0128A                    0.00           0      0.00      0.00      0.00     0.000      0.00    0.0    0.0
  0128B                    0.00           0      0.00      0.00      0.00     0.000      0.00    0.0    0.0
  0129A                    0.00           0      0.00      0.00      0.00     0.000      0.00    0.0    0.0
  0129B                    0.00           0      0.00      0.00      0.00     0.000      0.00    0.0    0.0
  0130A                    0.00           0      0.00      0.00      0.00     0.000      0.00    0.0    0.0
  0130B                    0.00           0      0.00      0.00      0.00     0.000      0.00    0.0    0.0
  0133A                    0.00           0      0.00      0.00      0.00     0.000      0.00    0.0    0.0
  0133B                    0.00           0      0.00      0.00      0.00     0.000      0.00    0.0    0.0
  0135A                   92.84           2      0.00      0.02      1.32     0.011      0.72    0.0    0.0
  0135B                   92.84           2      0.00      0.02      1.32     0.011      0.72    0.0    0.0
  0137A                    0.00           0      0.00      0.00      0.00     0.000      0.00    0.0    0.0
  0137B                    0.00           0      0.00      0.00      0.00     0.000      0.00    0.0    0.0
  0139A                    8.47         243      0.00      0.23      1.52     0.013      2.09    0.0    0.7
  0139B                    8.47         243      0.00      0.23      1.52     0.013      2.09    0.0    0.7
  0140A                    0.00           0      0.00      0.00      0.00     0.000      0.00    0.0    0.0
  0140B                    0.00           0      0.00      0.00      0.00     0.000      0.00    0.0    0.0
  0141A                    0.00           0      0.00      0.00      0.00     0.000      0.00    0.0    0.0
  0141B                    0.00           0      0.00      0.00      0.00     0.000      0.00    0.0    0.0
  0144A                    0.00           0      0.00      0.00      0.00     0.000      0.00    0.0    0.0
  0144B                    0.00           0      0.00      0.00      0.00     0.000      0.00    0.0    0.0
  0148A                   15.06         462      0.00      0.30      0.87     0.029      3.24    0.0    0.7
  0148B                   15.06         462      0.00      0.30      0.87     0.029      3.24    0.0    0.7
  0150A                    0.00           0      0.00      0.00      0.00     0.000      0.00    0.0    0.0
  0150B                    0.00           0      0.00      0.00      0.00     0.000      0.00    0.0    0.0
  0153A                    0.89          69      0.00      0.63      2.43     0.004      0.33    0.0    4.0
  0153B                    0.89          69      0.00      0.63      2.43     0.004      0.33    0.0    4.0
  0154A                    0.00           0      0.00      0.00      0.00     0.000      0.00    0.0    0.0
  0154B                    0.00           0      0.00      0.00      0.00     0.000      0.00    0.0    0.0
  0155A                    0.00           0      0.00      0.00      0.00     0.000      0.00    0.0    0.0
  0155B                    0.00           0      0.00      0.00      0.00     0.000      0.00    0.0    0.0
  0156A                    0.00           0      0.00      0.00      0.00     0.000      0.00    0.0    0.0
  0156B                    0.00           0      0.00      0.00      0.00     0.000      0.00    0.0    0.0
  0157A                    0.00           0      0.00      0.00      0.00     0.000      0.00    0.0    0.0
  0157B                    0.00           0      0.00      0.00      0.00     0.000      0.00    0.0    0.0
  0158A                    0.00           0      0.00      0.00      0.00     0.000      0.00    0.0    0.0
  0158B                    0.00           0      0.00      0.00      0.00     0.000      0.00    0.0    0.0
  0159A                    0.00           0      0.00      0.00      0.00     0.000      0.00    0.0    0.0
  0159B                    0.00           0      0.00      0.00      0.00     0.000      0.00    0.0    0.0
  0160A                    0.00           0      0.00      0.00      0.00     0.000      0.00    0.0    0.0
  0160B                    0.00           0      0.00      0.00      0.00     0.000      0.00    0.0    0.0
  0161A                    0.00           0      0.00      0.00      0.00     0.000      0.00    0.0    0.0
  0161B                    0.00           0      0.00      0.00      0.00     0.000      0.00    0.0    0.0
  0162A                    0.00           0      0.00      0.00      0.00     0.000      0.00    0.0    0.0
  0162B                    0.00           0      0.00      0.00      0.00     0.000      0.00    0.0    0.0
  0163A                    0.00           0      0.00      0.00      0.00     0.000      0.00    0.0    0.0
  0163B                    0.00           0      0.00      0.00      0.00     0.000      0.00    0.0    0.0
  0164A                    0.00           0      0.00      0.00      0.00     0.000      0.00    0.0    0.0
  0164B                    0.00           0      0.00      0.00      0.00     0.000      0.00    0.0    0.0
  0165A                    0.00           0      0.00      0.00      0.00     0.000      0.00    0.0    0.0
  0165B                    0.00           0      0.00      0.00      0.00     0.000      0.00    0.0    0.0
  0166A                    0.00           0      0.00      0.00      0.00     0.000      0.00    0.0    0.0
  0166B                    0.00           0      0.00      0.00      0.00     0.000      0.00    0.0    0.0
  0173A                    8.63         147      0.00      1.49      2.42     0.088     11.53    0.0    0.0
  0173B                  100.00           1      0.00      1.71      2.74     1.053    112.62    0.0    0.6
  0173C                    8.63         147      0.00      1.49      2.42     0.088     11.53    0.0    0.0
  MLS4A                   46.65           8      0.00      1.30     10.99     0.388     62.62    0.0    0.0
  MLS4B                   46.65           8      0.00      1.28     11.25     0.383     61.86    0.0    0.0
  MLS4C                   46.73           8      0.00      1.23     14.19     0.368     59.54    0.0    0.0
  SGMASTERA               99.89           1      0.00      0.65     11.23     0.413     65.96    0.0    0.5
  SGMASTERB               99.88           1      0.00      0.66     11.23     0.419     67.10    0.0    0.3
  SGMASTERC               99.89           1      0.00      0.65     11.23     0.410     65.45    0.0    0.6
  

  Analysis begun on:  Wed Jun 24 09:25:09 2026
  Analysis ended on:  Wed Jun 24 09:25:21 2026
  Total elapsed time: 00:00:12