
  EPA STORM WATER MANAGEMENT MODEL - VERSION 5.2 (Build 5.2.4)
  ------------------------------------------------------------

  WARNING 04: minimum elevation drop used for Conduit 108
  WARNING 04: minimum elevation drop used for Conduit 112
  WARNING 04: minimum elevation drop used for Conduit 113
  
  ****************
  Analysis Options
  ****************
  Flow Units ............... CFS
  Process Models:
    Rainfall/Runoff ........ NO
    RDII ................... NO
    Snowmelt ............... NO
    Groundwater ............ NO
    Flow Routing ........... YES
    Ponding Allowed ........ YES
    Water Quality .......... NO
  Flow Routing Method ...... DYNWAVE
  Surcharge Method ......... EXTRAN
  Starting Date ............ 01/01/2002 00:00:00
  Ending Date .............. 01/01/2002 04:00:00
  Antecedent Dry Days ...... 0.0
  Report Time Step ......... 00:05:00
  Routing Time Step ........ 30.00 sec
  Variable Time Step ....... NO
  Maximum Trials ........... 8
  Number of Threads ........ 1
  Head Tolerance ........... 0.001000 ft
  
  
  **************************        Volume        Volume
  Flow Routing Continuity        acre-feet      10^6 gal
  **************************     ---------     ---------
  Dry Weather Inflow .......         6.429         2.095
  Wet Weather Inflow .......         0.000         0.000
  Groundwater Inflow .......         0.000         0.000
  RDII Inflow ..............         0.000         0.000
  External Inflow ..........         0.660         0.215
  External Outflow .........         0.599         0.195
  Flooding Loss ............         5.511         1.796
  Evaporation Loss .........         0.000         0.000
  Exfiltration Loss ........         0.000         0.000
  Initial Stored Volume ....         0.000         0.000
  Final Stored Volume ......         1.388         0.452
  Continuity Error (%) .....        -5.767
  
  
  *************************
  Highest Continuity Errors
  *************************
  Node 106 (-198.49%)
  Node 91 (-115.57%)
  Node 87 (-108.09%)
  Node 88 (49.09%)
  Node 92 (-25.36%)
  
  
  ********************************
  Highest Flow Instability Indexes
  ********************************
  Link 116 (136)
  Link 114 (135)
  Link 115 (135)
  Link 109 (135)
  Link 46 (124)
  
  
  *********************************
  Most Frequent Nonconverging Nodes
  *********************************
  Node 122 (96.88%)
  Node 101 (90.83%)
  Node 98 (90.62%)
  Node 4 (2.50%)
  Node 1 (2.50%)
  
  
  *************************
  Routing Time Step Summary
  *************************
  Minimum Time Step           :    29.00 sec
  Average Time Step           :    30.00 sec
  Maximum Time Step           :    30.00 sec
  % of Time in Steady State   :     0.00
  Average Iterations per Step :     7.97
  % of Steps Not Converging   :    96.88
  
  
  ******************
  Node Depth Summary
  ******************
  
  ---------------------------------------------------------------------------------
                                 Average  Maximum  Maximum  Time of Max    Reported
                                   Depth    Depth      HGL   Occurrence   Max Depth
  Node                 Type         Feet     Feet     Feet  days hr:min        Feet
  ---------------------------------------------------------------------------------
  0                    JUNCTION     0.62     6.66    26.32     0  00:00        1.48
  1                    JUNCTION     0.62     2.74    22.32     0  00:00        0.62
  10                   JUNCTION     0.48     0.76    17.28     0  00:07        0.67
  100                  JUNCTION     0.00     0.00    -3.70     0  00:00        0.00
  101                  JUNCTION     0.33     0.36    -2.80     0  03:52        0.36
  102                  JUNCTION     0.00     0.00    -4.06     0  00:00        0.00
  103                  JUNCTION     0.00     0.00    -4.00     0  00:00        0.00
  104                  JUNCTION     0.00     0.00    -4.08     0  00:00        0.00
  105                  JUNCTION     0.01     0.11    -4.19     0  00:01        0.10
  106                  JUNCTION     0.01     0.09    -4.38     0  00:00        0.05
  107                  JUNCTION     0.68     0.69    -4.52     0  00:46        0.69
  108                  JUNCTION     0.67     0.69    -4.68     0  00:54        0.69
  109                  JUNCTION     0.67     0.69    -4.79     0  00:59        0.69
  11                   JUNCTION     0.54     0.79    16.83     0  00:09        0.78
  110                  JUNCTION     0.66     0.69    -4.90     0  01:04        0.69
  111                  JUNCTION     0.65     0.68    -5.02     0  01:08        0.68
  112                  JUNCTION     1.88     2.00   -13.00     0  00:24        2.00
  113                  JUNCTION     1.88     2.00   -13.00     0  00:24        2.00
  114                  JUNCTION     1.88     2.00   -13.00     0  00:24        2.00
  115                  JUNCTION     1.88     2.00   -13.00     0  00:24        2.00
  116                  JUNCTION     1.88     2.00   -13.00     0  00:24        2.00
  117                  JUNCTION     1.88     2.00   -13.00     0  00:24        2.00
  118                  JUNCTION     0.00     0.00    -3.73     0  00:00        0.00
  119                  JUNCTION     0.00     0.00    -3.75     0  00:00        0.00
  12                   JUNCTION     0.55     0.74    16.49     0  00:11        0.73
  120                  JUNCTION     0.00     0.00    -3.79     0  00:00        0.00
  121                  JUNCTION     0.64     0.69    -5.13     0  01:12        0.69
  123                  JUNCTION     0.58     0.67    -5.74     0  01:24        0.67
  124                  JUNCTION     0.62     0.69    -5.49     0  01:21        0.69
  125                  JUNCTION     0.64     0.69    -5.27     0  01:16        0.69
  13                   JUNCTION     0.61     0.77    16.24     0  00:14        0.77
  14                   JUNCTION     0.57     0.73    16.15     0  00:14        0.72
  15                   JUNCTION     0.44     0.57    15.95     0  00:15        0.57
  16                   JUNCTION     0.58     0.71    15.63     0  00:18        0.70
  17                   JUNCTION     0.57     0.69    15.43     0  00:20        0.69
  18                   JUNCTION     0.56     0.68    15.23     0  00:21        0.67
  19                   JUNCTION     0.43     0.53    14.90     0  00:25        0.53
  2                    JUNCTION     0.63     3.36    22.74     0  00:01        1.04
  20                   JUNCTION     0.52     0.63    14.90     0  00:24        0.63
  21                   JUNCTION     0.46     0.55    14.50     0  00:27        0.54
  22                   JUNCTION     0.33     0.38    13.80     0  00:01        0.34
  23                   JUNCTION     1.74     1.84     6.63     0  03:20        1.84
  24                   JUNCTION     0.56     0.58    18.57     0  00:01        0.56
  25                   JUNCTION     0.44     0.44    18.20     0  00:07        0.44
  26                   JUNCTION     0.50     0.50    17.82     0  00:36        0.50
  27                   JUNCTION     0.50     0.72    17.76     0  00:01        0.51
  28                   JUNCTION     0.39     0.42    17.14     0  00:01        0.39
  29                   JUNCTION     0.51     0.51    16.47     0  01:14        0.51
  3                    JUNCTION     0.66     2.51    21.73     0  00:01        1.08
  30                   JUNCTION     0.44     0.45    16.17     0  00:56        0.45
  31                   JUNCTION     0.45     0.46    15.95     0  01:28        0.46
  32                   JUNCTION     0.45     0.46    15.88     0  03:51        0.46
  33                   JUNCTION     0.63     0.66    15.66     0  03:15        0.66
  34                   JUNCTION     0.56     0.59    15.53     0  03:17        0.59
  35                   JUNCTION     0.50     0.54    15.34     0  02:17        0.54
  36                   JUNCTION     0.40     0.43    15.03     0  02:48        0.43
  37                   JUNCTION     0.53     0.57    14.69     0  02:39        0.57
  38                   JUNCTION     0.43     0.47    14.46     0  02:41        0.47
  39                   JUNCTION     0.42     0.46    14.10     0  03:27        0.46
  4                    JUNCTION     0.71     1.58    20.66     0  00:02        1.09
  40                   JUNCTION     0.42     0.46    14.03     0  02:42        0.46
  41                   JUNCTION     0.53     0.59    13.79     0  02:43        0.59
  42                   JUNCTION     0.45     0.51    13.59     0  03:32        0.51
  43                   JUNCTION     0.45     0.52    13.41     0  02:18        0.52
  44                   JUNCTION     0.11     0.13    12.74     0  03:28        0.13
  45                   JUNCTION     1.90     2.01     6.58     0  02:43        2.01
  46                   JUNCTION     2.01     2.14     6.56     0  03:23        2.14
  47                   JUNCTION     2.13     2.26     6.54     0  02:43        2.25
  48                   JUNCTION     2.24     2.36     6.52     0  03:02        2.36
  49                   JUNCTION     2.35     2.48     6.51     0  02:51        2.48
  5                    JUNCTION     0.66     1.15    20.19     0  00:02        0.96
  50                   JUNCTION     2.65     2.77     6.48     0  02:21        2.77
  51                   JUNCTION     1.39     8.99    12.64     0  00:01        1.51
  52                   JUNCTION     1.55     6.21     9.47     0  00:01        1.86
  53                   JUNCTION     1.67     9.40    12.48     0  00:00        2.14
  54                   JUNCTION     1.76    10.95    13.91     0  00:00        2.27
  55                   JUNCTION     1.77    10.81    13.61     0  00:00        2.35
  56                   JUNCTION     1.75     7.74    10.48     0  00:00        2.36
  57                   JUNCTION     1.75     5.38     7.89     0  00:00        2.52
  58                   JUNCTION     1.74     4.53     6.70     0  00:01        2.49
  59                   JUNCTION     1.72     3.45     5.28     0  00:01        2.54
  6                    JUNCTION     0.38     0.75    19.75     0  00:02        0.61
  60                   JUNCTION     1.70     3.11     4.69     0  00:02        2.41
  61                   JUNCTION     1.66     2.52     3.85     0  00:03        2.38
  62                   JUNCTION     1.39     2.01     2.98     0  00:05        1.99
  63                   JUNCTION     1.92     2.20     2.40     0  00:08        2.16
  64                   JUNCTION     1.92     2.15     2.29     0  00:08        2.14
  65                   JUNCTION     1.91     2.09     2.11     0  00:10        2.09
  66                   JUNCTION     1.89     2.01     1.85     0  00:12        2.00
  67                   JUNCTION     1.86     1.94     1.54     0  03:46        1.94
  68                   JUNCTION     1.85     1.95     1.46     0  03:46        1.95
  69                   JUNCTION     1.84     1.95     1.33     0  03:47        1.95
  7                    JUNCTION     0.48     0.84    19.48     0  00:04        0.81
  70                   JUNCTION     1.82     1.93     1.23     0  03:47        1.93
  71                   JUNCTION     1.80     1.92     1.07     0  03:48        1.92
  72                   JUNCTION     1.78     1.91     0.97     0  03:53        1.91
  73                   JUNCTION     1.75     1.89     0.83     0  03:54        1.89
  74                   JUNCTION     1.73     1.88     0.73     0  03:54        1.88
  75                   JUNCTION     1.71     1.87     0.53     0  03:55        1.87
  76                   JUNCTION     1.69     1.85     0.36     0  03:56        1.85
  77                   JUNCTION     1.66     1.82     0.16     0  03:57        1.82
  78                   JUNCTION     1.61     1.77    -0.05     0  03:57        1.77
  79                   JUNCTION     1.47     1.60    -0.40     0  03:58        1.60
  8                    JUNCTION     0.51     0.83    18.93     0  00:05        0.83
  80                   JUNCTION     1.30     1.41    -0.72     0  03:59        1.41
  81                   JUNCTION     0.23     0.23    -1.07     0  00:09        0.23
  82                   JUNCTION     0.00     0.00    -0.22     0  00:00        0.00
  83                   JUNCTION     0.01     0.11    -0.23     0  00:05        0.11
  84                   JUNCTION     0.01     0.14    -0.21     0  00:03        0.10
  85                   JUNCTION     0.00     0.09    -0.22     0  00:07        0.05
  86                   JUNCTION     0.12     0.43    -0.11     0  00:01        0.24
  87                   JUNCTION     0.16     0.20    -0.39     0  00:00        0.17
  88                   JUNCTION     0.24     0.26    -0.41     0  00:06        0.25
  89                   JUNCTION     0.58     0.59    -0.42     0  00:09        0.59
  9                    JUNCTION     0.25     0.41    18.41     0  00:05        0.41
  90                   JUNCTION     0.01     0.30     1.51     0  00:01        0.07
  91                   JUNCTION     0.02     0.67     1.43     0  00:00        0.05
  92                   JUNCTION     0.13     2.18     2.79     0  00:00        0.20
  93                   JUNCTION     0.09     0.19     1.64     0  00:01        0.10
  94                   JUNCTION     0.08     0.08     2.41     0  00:31        0.08
  95                   JUNCTION     0.06     0.06     3.04     0  00:22        0.06
  96                   JUNCTION     0.05     0.05     3.83     0  00:10        0.05
  97                   JUNCTION     0.00     0.00     4.40     0  00:00        0.00
  98                   JUNCTION     1.67     1.79    -1.37     0  01:41        1.78
  99                   JUNCTION     0.00     0.00    -3.68     0  00:00        0.00
  122                  OUTFALL      0.34     0.40    -6.14     0  01:24        0.40
  
  
  *******************
  Node Inflow Summary
  *******************
  
  -------------------------------------------------------------------------------------------------
                                  Maximum  Maximum                  Lateral       Total        Flow
                                  Lateral    Total  Time of Max      Inflow      Inflow     Balance
                                   Inflow   Inflow   Occurrence      Volume      Volume       Error
  Node                 Type           CFS      CFS  days hr:min    10^6 gal    10^6 gal     Percent
  -------------------------------------------------------------------------------------------------
  0                    JUNCTION      1.00    20.26     0  00:01       0.108       0.112      -5.016
  1                    JUNCTION      0.00    43.20     0  00:00           0       0.118       2.701
  10                   JUNCTION      0.00     2.72     0  00:05           0       0.111       0.764
  100                  JUNCTION      0.00     0.00     0  00:00           0           0       0.000 gal
  101                  JUNCTION      0.00    21.84     0  03:51           0        1.95       6.672
  102                  JUNCTION      0.00     0.00     0  00:00           0           0       0.000 gal
  103                  JUNCTION      0.00     0.00     0  00:00           0           0       0.000 gal
  104                  JUNCTION      0.00     0.00     0  00:00           0           0       0.000 gal
  105                  JUNCTION      0.00     0.85     0  00:00           0    0.000212      29.552
  106                  JUNCTION      0.00     0.02     0  00:03           0    0.000163     -66.498
  107                  JUNCTION      2.12     2.24     0  00:00       0.228       0.229       1.848
  108                  JUNCTION      0.00     2.13     0  00:34           0       0.225       1.133
  109                  JUNCTION      0.00     5.15     0  00:00           0       0.222       1.328
  11                   JUNCTION      0.00     2.44     0  00:07           0        0.11       1.138
  110                  JUNCTION      0.00     2.13     0  00:52           0       0.219       1.376
  111                  JUNCTION      0.00     2.12     0  00:57           0       0.216       1.337
  112                  JUNCTION      0.00     7.08     0  03:59           0       0.611       1.082
  113                  JUNCTION      0.00     1.36     0  00:24           0      0.0224      33.890
  114                  JUNCTION      0.00     1.36     0  00:24           0      0.0224      33.890
  115                  JUNCTION      0.00     1.36     0  00:24           0      0.0224      33.890
  116                  JUNCTION      0.00     7.08     0  03:59           0       0.611       1.082
  117                  JUNCTION      0.00     7.08     0  03:59           0       0.611       1.082
  118                  JUNCTION      0.00     0.00     0  00:00           0           0       0.000 gal
  119                  JUNCTION      0.00     0.00     0  00:00           0           0       0.000 gal
  12                   JUNCTION      0.00     2.06     0  00:09           0       0.109       1.149
  120                  JUNCTION      0.00     0.00     0  00:00           0           0       0.000 gal
  121                  JUNCTION      0.00     2.12     0  01:03           0       0.213       1.490
  123                  JUNCTION      0.00     2.12     0  01:21           0         0.2       2.327
  124                  JUNCTION      0.00     2.12     0  01:14           0       0.206       2.987
  125                  JUNCTION      0.00     2.12     0  01:08           0        0.21       2.212
  13                   JUNCTION      0.00     1.81     0  00:11           0       0.107       0.976
  14                   JUNCTION      0.00     1.60     0  00:12           0       0.106       0.501
  15                   JUNCTION      0.00     1.58     0  00:14           0       0.106       0.514
  16                   JUNCTION      0.00     1.56     0  00:15           0       0.105       1.047
  17                   JUNCTION      0.00     1.45     0  00:16           0       0.104       1.164
  18                   JUNCTION      0.00     1.34     0  00:18           0       0.103       1.143
  19                   JUNCTION      0.00     1.34     0  00:22           0       0.102       0.620
  2                    JUNCTION      0.00     3.88     0  00:01           0        0.11      -2.438
  20                   JUNCTION      0.00     1.26     0  00:23           0       0.101       0.869
  21                   JUNCTION      0.00     1.24     0  00:25           0         0.1       1.082
  22                   JUNCTION      6.89     8.11     0  00:27       0.741        0.84       0.118
  23                   JUNCTION      0.00     8.89     0  00:41           0       0.932       1.427
  24                   JUNCTION      1.00     1.00     0  00:00       0.108       0.108       0.155
  25                   JUNCTION      0.00     1.05     0  00:01           0       0.107       0.303
  26                   JUNCTION      0.00     1.42     0  00:00           0       0.107      -0.590
  27                   JUNCTION      0.00     7.71     0  00:00           0       0.108       0.843
  28                   JUNCTION      0.00     2.20     0  00:01           0       0.107       0.581
  29                   JUNCTION      0.00     1.05     0  00:02           0       0.106       0.816
  3                    JUNCTION      0.00     6.15     0  00:01           0       0.113      -0.931
  30                   JUNCTION      0.00     1.00     0  03:38           0       0.105       0.596
  31                   JUNCTION      0.00     1.00     0  00:48           0       0.105       0.420
  32                   JUNCTION      0.00     1.00     0  03:23           0       0.104       0.630
  33                   JUNCTION      0.00     1.00     0  00:57           0       0.104       1.411
  34                   JUNCTION      0.00     1.00     0  03:57           0       0.102       1.227
  35                   JUNCTION      0.00     1.00     0  02:39           0       0.101       1.052
  36                   JUNCTION      0.00     1.00     0  02:39           0      0.0999       0.762
  37                   JUNCTION      0.00     1.00     0  02:15           0      0.0992       1.086
  38                   JUNCTION      0.00     1.00     0  03:34           0      0.0981       0.846
  39                   JUNCTION      0.00     1.00     0  03:23           0      0.0973       0.663
  4                    JUNCTION      0.00     5.81     0  00:00           0       0.114       0.504
  40                   JUNCTION      0.00     1.00     0  03:15           0      0.0966       0.646
  41                   JUNCTION      0.00     1.00     0  02:42           0       0.096       1.251
  42                   JUNCTION      0.00     1.00     0  02:38           0      0.0948       0.911
  43                   JUNCTION      0.00     1.00     0  03:32           0       0.094       0.833
  44                   JUNCTION      0.00     1.00     0  02:41           0      0.0932       0.365
  45                   JUNCTION      0.00     8.89     0  02:20           0        0.92       0.998
  46                   JUNCTION      0.00    11.04     0  00:04           0       0.915       0.877
  47                   JUNCTION      0.00    11.92     0  00:03           0       0.914       0.863
  48                   JUNCTION      0.00    14.16     0  00:03           0       0.916       0.863
  49                   JUNCTION      0.00    18.79     0  00:02           0        0.92       1.600
  5                    JUNCTION      0.00     4.29     0  00:01           0       0.114       0.528
  50                   JUNCTION      0.00    35.75     0  00:01           0       0.921       1.690
  51                   JUNCTION      0.00   112.74     0  00:00           0       0.928       0.909
  52                   JUNCTION      0.00    22.97     0  00:01           0       0.903      -4.759
  53                   JUNCTION      0.00   192.87     0  00:00           0       0.954       3.230
  54                   JUNCTION      6.76    31.68     0  00:03       0.728        1.64      -4.288
  55                   JUNCTION      0.00    99.53     0  00:00           0        1.66       0.245
  56                   JUNCTION      0.00    43.00     0  00:02           0        1.66      -1.819
  57                   JUNCTION      0.00    60.08     0  00:01           0        1.69      -1.777
  58                   JUNCTION      0.00   114.59     0  00:00           0        1.72       0.415
  59                   JUNCTION      0.00    86.28     0  00:01           0        1.71       0.342
  6                    JUNCTION      0.00     3.94     0  00:02           0       0.113       0.403
  60                   JUNCTION      0.00    77.23     0  00:01           0        1.71       0.478
  61                   JUNCTION      0.00    64.21     0  00:02           0         1.7       0.640
  62                   JUNCTION      0.00    47.66     0  00:03           0        1.69       0.644
  63                   JUNCTION      0.00    38.96     0  00:03           0        1.68       0.667
  64                   JUNCTION      0.00    35.66     0  00:04           0        1.67       0.544
  65                   JUNCTION      0.00    28.89     0  00:04           0        1.66       0.889
  66                   JUNCTION      0.00    25.57     0  00:06           0        1.64       1.266
  67                   JUNCTION      0.00    20.89     0  00:10           0        1.62       1.023
  68                   JUNCTION      0.00    18.92     0  00:11           0        1.61       0.614
  69                   JUNCTION      0.00    18.06     0  00:13           0         1.6       0.642
  7                    JUNCTION      0.00     3.96     0  00:02           0       0.113       0.665
  70                   JUNCTION      0.00    17.18     0  00:14           0        1.59       0.690
  71                   JUNCTION      0.00    16.44     0  00:15           0        1.58       0.705
  72                   JUNCTION      0.00    15.82     0  00:18           0        1.57       0.624
  73                   JUNCTION      0.00    15.65     0  03:48           0        1.56       0.624
  74                   JUNCTION      0.00    15.65     0  03:49           0        1.55       0.734
  75                   JUNCTION      0.00    15.65     0  03:49           0        1.53       0.890
  76                   JUNCTION      0.00    15.65     0  03:50           0        1.52       0.831
  77                   JUNCTION      0.00    15.65     0  03:51           0        1.51       0.880
  78                   JUNCTION      0.00    15.65     0  03:57           0         1.5       0.724
  79                   JUNCTION      0.00    15.69     0  03:58           0        1.49       0.692
  8                    JUNCTION      0.00     3.18     0  00:03           0       0.112       0.759
  80                   JUNCTION      2.00    17.69     0  03:58       0.216         1.7       0.575
  81                   JUNCTION      0.00     1.72     0  00:08           0       0.177       0.307
  82                   JUNCTION      0.00     0.00     0  00:00           0           0       0.000 gal
  83                   JUNCTION      0.00     0.08     0  00:03           0    0.000137       7.911
  84                   JUNCTION      0.00     0.27     0  00:01           0    0.000333      10.662
  85                   JUNCTION      0.00     0.02     0  00:05           0    2.93e-05      19.350
  86                   JUNCTION      0.00     4.61     0  00:00           0     0.00122      22.773
  87                   JUNCTION      0.00     0.23     0  00:02           0    0.000766     -51.943
  88                   JUNCTION      0.00     0.32     0  00:04           0    0.000847      96.438
  89                   JUNCTION      1.65     1.78     0  00:07       0.178       0.178       0.819
  9                    JUNCTION      0.00     2.72     0  00:05           0       0.111       0.200
  90                   JUNCTION      0.00     0.61     0  00:00           0    0.000138      39.783
  91                   JUNCTION      0.00     0.12     0  00:01    0.000323    0.000421     -53.611
  92                   JUNCTION      0.01     0.11     0  00:02    0.000646     0.00399     -20.228
  93                   JUNCTION      0.01     0.54     0  00:00    0.000968     0.00342       2.503
  94                   JUNCTION      0.01     0.02     0  00:22     0.00118     0.00233       1.874
  95                   JUNCTION      0.00     0.01     0  00:12    0.000215     0.00117       2.085
  96                   JUNCTION      0.01     0.01     0  00:00    0.000968    0.000968       1.877
  97                   JUNCTION      0.00     0.00     0  00:00           0           0       0.000 gal
  98                   JUNCTION      0.00    19.35     0  03:50           0        1.86      -4.734
  99                   JUNCTION      0.00     0.00     0  00:00           0           0       0.000 gal
  122                  OUTFALL       0.00     2.12     0  01:24           0       0.195       0.000
  
  
  **********************
  Node Surcharge Summary
  **********************
  
  Surcharging occurs when water rises above the top of the highest conduit.
  ---------------------------------------------------------------------
                                               Max. Height   Min. Depth
                                   Hours       Above Crown    Below Rim
  Node                 Type      Surcharged           Feet         Feet
  ---------------------------------------------------------------------
  0                    JUNCTION        0.07          5.493        3.341
  1                    JUNCTION        0.07          1.573        7.260
  112                  JUNCTION        3.60          0.000        0.000
  113                  JUNCTION        3.60          0.000        0.000
  114                  JUNCTION        3.60          0.000        0.000
  115                  JUNCTION        3.60          0.000        0.000
  116                  JUNCTION        3.60          0.000        0.000
  117                  JUNCTION        3.60          0.000        0.000
  2                    JUNCTION        0.07          2.196        6.637
  3                    JUNCTION        0.07          1.346        7.488
  4                    JUNCTION        0.06          0.411        8.423
  51                   JUNCTION        0.03          5.492       11.358
  52                   JUNCTION        0.03          2.706       14.004
  53                   JUNCTION        0.03          5.901       11.049
  54                   JUNCTION        0.03          7.447        7.993
  55                   JUNCTION        0.03          7.312        9.638
  56                   JUNCTION        0.03          4.241        9.489
  57                   JUNCTION        0.03          1.875       10.165
  58                   JUNCTION        0.02          1.032       10.448
  91                   JUNCTION        0.01          0.000        3.893
  92                   JUNCTION        0.03          1.508        2.565
  
  
  *********************
  Node Flooding Summary
  *********************
  
  Flooding refers to all water that overflows a node, whether it ponds or not.
  --------------------------------------------------------------------------
                                                             Total   Maximum
                                 Maximum   Time of Max       Flood    Ponded
                        Hours       Rate    Occurrence      Volume     Depth
  Node                 Flooded       CFS   days hr:min    10^6 gal      Feet
  --------------------------------------------------------------------------
  112                     3.60      6.38      0  03:59       0.583     0.000
  113                     3.60      1.35      0  00:24       0.017     0.000
  114                     3.60      1.35      0  00:24       0.017     0.000
  115                     3.60      1.35      0  00:24       0.017     0.000
  116                     3.60      6.38      0  03:59       0.583     0.000
  117                     3.60      6.38      0  03:59       0.583     0.000
  
  
  ***********************
  Outfall Loading Summary
  ***********************
  
  -----------------------------------------------------------
                         Flow       Avg       Max       Total
                         Freq      Flow      Flow      Volume
  Outfall Node           Pcnt       CFS       CFS    10^6 gal
  -----------------------------------------------------------
  122                   90.62      2.00      2.12       0.195
  -----------------------------------------------------------
  System                90.62      2.00      2.12       0.195
  
  
  ********************
  Link Flow Summary
  ********************
  
  -----------------------------------------------------------------------------
                                 Maximum  Time of Max   Maximum    Max/    Max/
                                  |Flow|   Occurrence   |Veloc|    Full    Full
  Link                 Type          CFS  days hr:min    ft/sec    Flow   Depth
  -----------------------------------------------------------------------------
  0                    CONDUIT     43.20     0  00:00    >50.00   21.08    1.00
  1                    CONDUIT      3.88     0  00:01      3.63    2.01    1.00
  10                   CONDUIT      2.44     0  00:07      3.72    0.55    0.51
  100                  CONDUIT      0.00     0  00:00      0.00    0.00    0.00
  101                  CONDUIT      0.00     0  00:00      0.00    0.00    0.01
  102                  CONDUIT      0.85     0  00:00      5.80    0.02    0.04
  103                  CONDUIT      0.12     0  00:00      1.00    0.00    0.09
  104                  CONDUIT      2.13     0  00:34      1.82    0.05    0.15
  105                  CONDUIT      5.15     0  00:00     15.87    0.12    0.15
  106                  CONDUIT      2.13     0  00:52      3.20    0.05    0.15
  107                  CONDUIT      0.00     0  00:00      0.00    0.00    0.50
  108                  CONDUIT      1.36     0  00:24      1.53    1.52    1.00
  109                  CONDUIT      7.08     0  03:59     13.71    0.07    0.59
  11                   CONDUIT      2.06     0  00:09      3.16    0.58    0.50
  110                  CONDUIT      0.00     0  00:00      0.00    0.00    0.50
  111                  CONDUIT      0.00     0  00:00      0.00    0.00    0.50
  112                  CONDUIT      1.36     0  00:24      1.53    1.52    1.00
  113                  CONDUIT      1.36     0  00:24      1.53    1.52    1.00
  114                  CONDUIT      7.08     0  03:59     13.71    0.07    0.59
  115                  CONDUIT      7.08     0  03:59     13.71    0.07    0.59
  116                  CONDUIT     21.84     0  03:51      9.73    0.14    0.24
  117                  CONDUIT      0.00     0  00:00      0.00    0.00    0.00
  118                  CONDUIT      0.00     0  00:00      0.00    0.00    0.00
  119                  CONDUIT      0.00     0  00:00      0.00    0.00    0.00
  12                   CONDUIT      1.81     0  00:11      2.72    0.53    0.50
  120                  CONDUIT      0.00     0  00:00      0.00    0.00    0.00
  121                  CONDUIT      2.12     0  00:57      1.51    0.05    0.15
  122                  CONDUIT      2.12     0  01:03      1.61    0.05    0.15
  123                  CONDUIT      2.12     0  01:14      1.61    0.05    0.15
  124                  CONDUIT      2.12     0  01:08      1.67    0.05    0.15
  125                  CONDUIT      2.12     0  01:21      1.55    0.05    0.15
  126                  CONDUIT      2.12     0  01:24      1.99    0.05    0.12
  127                  CONDUIT      1.72     0  00:09      3.94    0.02    0.36
  13                   CONDUIT      1.60     0  00:12      2.17    0.69    0.50
  14                   CONDUIT      1.58     0  00:14      2.51    0.77    0.43
  15                   CONDUIT      1.56     0  00:15      3.07    0.31    0.42
  16                   CONDUIT      1.45     0  00:16      2.47    0.49    0.47
  17                   CONDUIT      1.34     0  00:18      2.25    0.45    0.46
  18                   CONDUIT      1.34     0  00:22      2.26    0.44    0.40
  19                   CONDUIT      1.26     0  00:23      3.46    0.18    0.39
  2                    CONDUIT      6.15     0  00:01      5.75    3.04    1.00
  20                   CONDUIT      1.24     0  00:25      6.96    0.35    0.39
  21                   CONDUIT      1.22     0  00:27      2.79    0.25    0.30
  22                   CONDUIT      8.16     0  00:01     25.34    0.11    0.61
  23                   CONDUIT      1.05     0  00:01      4.97    0.62    0.50
  24                   CONDUIT      1.42     0  00:00      3.11    0.27    0.51
  25                   CONDUIT      7.71     0  00:00      6.17    1.86    0.67
  26                   CONDUIT      2.20     0  00:01      4.24    0.50    0.33
  27                   CONDUIT      1.05     0  00:02      3.94    0.16    0.30
  28                   CONDUIT      1.00     0  03:38      2.43    0.18    0.27
  29                   CONDUIT      1.00     0  00:48      2.10    0.14    0.26
  3                    CONDUIT      5.81     0  00:00      6.35    2.93    1.00
  30                   CONDUIT      1.00     0  03:23      2.24    0.16    0.26
  31                   CONDUIT      1.00     0  00:57      1.96    0.15    0.32
  32                   CONDUIT      1.00     0  03:57      1.49    0.38    0.36
  33                   CONDUIT      1.00     0  02:39      1.63    0.26    0.32
  34                   CONDUIT      1.00     0  02:39      1.86    0.20    0.28
  35                   CONDUIT      1.00     0  02:15      2.29    0.13    0.29
  36                   CONDUIT      1.00     0  03:34      1.77    0.25    0.30
  37                   CONDUIT      1.00     0  03:23      2.02    0.16    0.27
  38                   CONDUIT      1.00     0  03:15      2.29    0.15    0.27
  39                   CONDUIT      1.00     0  02:42      2.10    0.15    0.30
  4                    CONDUIT      4.29     0  00:01      4.74    3.92    0.99
  40                   CONDUIT      1.00     0  02:38      1.64    0.27    0.31
  41                   CONDUIT      1.00     0  03:32      2.02    0.18    0.29
  42                   CONDUIT      1.00     0  02:41      3.24    0.16    0.19
  43                   CONDUIT      1.00     0  02:20      0.79    0.01    0.54
  44                   CONDUIT      8.89     0  02:20      5.49    0.30    0.55
  45                   CONDUIT      8.92     0  03:49      3.31    0.29    0.59
  46                   CONDUIT      8.94     0  02:20      2.68    0.30    0.63
  47                   CONDUIT     11.92     0  00:03      4.04    0.39    0.66
  48                   CONDUIT     14.16     0  00:03      4.04    0.48    0.69
  49                   CONDUIT     18.79     0  00:02      4.54    0.61    0.75
  5                    CONDUIT      3.94     0  00:02      3.78    2.45    0.63
  50                   CONDUIT     35.75     0  00:01      5.41    1.26    0.80
  51                   CONDUIT    112.74     0  00:00     14.68    3.74    1.00
  52                   CONDUIT     22.97     0  00:01      2.53    0.76    1.00
  53                   CONDUIT    187.93     0  00:00     19.53    5.68    1.00
  54                   CONDUIT     99.53     0  00:00     10.34    3.13    1.00
  55                   CONDUIT     43.00     0  00:02      4.47    1.45    1.00
  56                   CONDUIT     60.08     0  00:01      6.24    1.88    1.00
  57                   CONDUIT    114.59     0  00:00     15.68    3.60    1.00
  58                   CONDUIT     86.28     0  00:01     11.75    2.70    1.00
  59                   CONDUIT     77.23     0  00:01     10.01    2.43    0.88
  6                    CONDUIT      3.96     0  00:02      5.03    0.55    0.52
  60                   CONDUIT     64.21     0  00:02      9.65    2.01    0.76
  61                   CONDUIT     47.66     0  00:03      8.88    1.51    0.62
  62                   CONDUIT     38.96     0  00:03      8.32    0.80    0.60
  63                   CONDUIT     35.66     0  00:04      6.80    1.11    0.54
  64                   CONDUIT     28.89     0  00:04      6.75    0.90    0.53
  65                   CONDUIT     25.57     0  00:06      6.22    0.80    0.51
  66                   CONDUIT     20.89     0  00:10      5.42    0.66    0.49
  67                   CONDUIT     18.92     0  00:11      4.88    0.58    0.49
  68                   CONDUIT     18.06     0  00:13      4.88    0.55    0.49
  69                   CONDUIT     17.18     0  00:14      4.90    0.57    0.48
  7                    CONDUIT      3.18     0  00:03      4.12    0.68    0.55
  70                   CONDUIT     16.44     0  00:15      4.78    0.50    0.48
  71                   CONDUIT     15.82     0  00:18      4.54    0.49    0.48
  72                   CONDUIT     15.65     0  03:48      4.43    0.49    0.48
  73                   CONDUIT     15.65     0  03:49      4.45    0.48    0.47
  74                   CONDUIT     15.65     0  03:49      4.41    0.46    0.47
  75                   CONDUIT     15.65     0  03:50      4.09    0.46    0.47
  76                   CONDUIT     15.65     0  03:51      3.89    0.46    0.46
  77                   CONDUIT     15.65     0  03:57      3.60    0.47    0.45
  78                   CONDUIT     15.65     0  03:58      3.11    0.48    0.42
  79                   CONDUIT     15.69     0  03:58      3.62    0.43    0.38
  8                    CONDUIT      2.72     0  00:05      4.00    0.75    0.41
  80                   CONDUIT     17.69     0  03:59      7.67    0.27    0.40
  81                   CONDUIT      0.00     0  00:00      0.00    0.00    0.03
  82                   CONDUIT      0.08     0  00:03      1.15    0.01    0.04
  83                   CONDUIT      0.27     0  00:01      1.28    0.02    0.10
  84                   CONDUIT      4.61     0  00:00      7.09    0.72    0.19
  85                   CONDUIT      0.12     0  00:05      1.00    0.01    0.12
  86                   CONDUIT      0.21     0  00:03      0.61    0.01    0.17
  87                   CONDUIT      1.72     0  00:08      3.24    0.11    0.17
  88                   CONDUIT      0.02     0  00:05      0.47    0.00    0.04
  89                   CONDUIT      0.00     0  00:00      0.00    0.00    0.04
  9                    CONDUIT      2.72     0  00:05      7.37    0.16    0.39
  90                   CONDUIT      0.01     0  00:12      0.77    0.01    0.08
  91                   CONDUIT      0.01     0  00:22      0.59    0.02    0.10
  92                   CONDUIT      0.02     0  00:31      0.82    0.03    0.15
  93                   CONDUIT      0.52     0  00:00      2.97    0.73    0.64
  94                   CONDUIT      0.96     0  00:01      2.94    1.64    0.93
  95                   CONDUIT      0.61     0  00:00      2.91    1.04    0.58
  96                   CONDUIT      1.63     0  00:00      9.22    0.91    0.51
  98                   CONDUIT      0.00     0  00:00      0.00    0.00    0.00
  99                   CONDUIT      0.00     0  00:00      0.00    0.00    0.00
  
  
  ***************************
  Flow Classification Summary
  ***************************
  
  -------------------------------------------------------------------------------------
                      Adjusted    ---------- Fraction of Time in Flow Class ---------- 
                       /Actual         Up    Down  Sub   Sup   Up    Down  Norm  Inlet 
  Conduit               Length    Dry  Dry   Dry   Crit  Crit  Crit  Crit  Ltd   Ctrl  
  -------------------------------------------------------------------------------------
  0                       1.46   0.00  0.00  0.00  1.00  0.00  0.00  0.00  0.01  0.00
  1                       1.00   0.00  0.00  0.00  1.00  0.00  0.00  0.00  0.00  0.00
  10                      1.00   0.00  0.00  0.00  0.98  0.02  0.00  0.00  0.97  0.00
  100                     1.00   1.00  0.00  0.00  0.00  0.00  0.00  0.00  0.00  0.00
  101                     1.00   0.74  0.26  0.00  0.00  0.00  0.00  0.00  0.00  0.00
  102                     1.00   0.00  0.74  0.00  0.26  0.00  0.00  0.00  0.90  0.00
  103                     1.00   0.00  0.00  0.00  1.00  0.00  0.00  0.00  1.00  0.00
  104                     1.00   0.00  0.00  0.00  1.00  0.00  0.00  0.00  0.01  0.00
  105                     1.00   0.00  0.00  0.00  1.00  0.00  0.00  0.00  0.01  0.00
  106                     1.00   0.00  0.00  0.00  1.00  0.00  0.00  0.00  0.01  0.00
  107                     6.92   0.00  1.00  0.00  0.00  0.00  0.00  0.00  0.00  0.00
  108                     1.30   0.00  0.00  0.00  1.00  0.00  0.00  0.00  0.01  0.00
  109                     6.72   0.00  0.00  0.00  0.96  0.04  0.00  0.00  1.00  0.00
  11                      1.00   0.00  0.00  0.00  0.99  0.01  0.00  0.00  0.91  0.00
  110                     6.92   0.00  1.00  0.00  0.00  0.00  0.00  0.00  0.00  0.00
  111                     6.92   0.00  1.00  0.00  0.00  0.00  0.00  0.00  0.00  0.00
  112                     1.30   0.00  0.00  0.00  1.00  0.00  0.00  0.00  0.01  0.00
  113                     1.30   0.00  0.00  0.00  1.00  0.00  0.00  0.00  0.01  0.00
  114                     6.72   0.00  0.00  0.00  0.96  0.04  0.00  0.00  1.00  0.00
  115                     6.72   0.00  0.00  0.00  0.96  0.04  0.00  0.00  1.00  0.00
  116                    10.70   0.00  0.00  0.00  0.05  0.95  0.00  0.00  0.00  0.00
  117                     1.23   1.00  0.00  0.00  0.00  0.00  0.00  0.00  0.00  0.00
  118                     3.64   1.00  0.00  0.00  0.00  0.00  0.00  0.00  0.00  0.00
  119                     1.30   1.00  0.00  0.00  0.00  0.00  0.00  0.00  0.00  0.00
  12                      1.00   0.01  0.00  0.00  0.99  0.00  0.00  0.00  0.01  0.00
  120                    10.19   1.00  0.00  0.00  0.00  0.00  0.00  0.00  0.00  0.00
  121                     1.00   0.00  0.00  0.00  1.00  0.00  0.00  0.00  0.00  0.00
  122                     1.00   0.00  0.00  0.00  1.00  0.00  0.00  0.00  0.01  0.00
  123                     1.00   0.00  0.00  0.00  1.00  0.00  0.00  0.00  0.00  0.00
  124                     1.00   0.00  0.00  0.00  1.00  0.00  0.00  0.00  0.01  0.00
  125                     1.00   0.00  0.00  0.00  1.00  0.00  0.00  0.00  0.00  0.00
  126                     1.00   0.00  0.00  0.00  1.00  0.00  0.00  0.00  0.00  0.00
  127                     9.45   0.00  0.00  0.00  0.97  0.02  0.00  0.00  1.00  0.00
  13                      1.00   0.01  0.00  0.00  0.99  0.00  0.00  0.00  0.00  0.00
  14                      1.00   0.01  0.00  0.00  0.99  0.00  0.00  0.00  0.00  0.00
  15                      1.00   0.01  0.00  0.00  0.97  0.01  0.00  0.00  0.95  0.00
  16                      1.00   0.02  0.00  0.00  0.97  0.00  0.00  0.00  0.01  0.00
  17                      1.00   0.03  0.00  0.00  0.97  0.00  0.00  0.00  0.00  0.00
  18                      1.00   0.00  0.03  0.00  0.97  0.00  0.00  0.00  0.00  0.00
  19                      4.98   0.00  0.00  0.00  0.99  0.01  0.00  0.00  0.07  0.00
  2                       1.00   0.00  0.00  0.00  1.00  0.00  0.00  0.00  0.00  0.00
  20                      1.00   0.00  0.00  0.00  0.99  0.01  0.00  0.00  0.00  0.00
  21                      1.00   0.00  0.00  0.00  1.00  0.00  0.00  0.00  0.09  0.00
  22                     24.03   0.00  0.00  0.00  0.00  1.00  0.00  0.00  1.00  0.00
  23                      1.00   0.00  0.00  0.00  1.00  0.00  0.00  0.00  0.00  0.00
  24                      1.00   0.00  0.00  0.00  0.99  0.01  0.00  0.00  0.99  0.00
  25                      1.00   0.00  0.00  0.00  1.00  0.00  0.00  0.00  0.97  0.00
  26                      1.00   0.00  0.00  0.00  1.00  0.00  0.00  0.00  0.00  0.00
  27                      1.00   0.00  0.00  0.00  0.99  0.01  0.00  0.00  0.99  0.00
  28                      1.00   0.00  0.00  0.00  1.00  0.00  0.00  0.00  0.00  0.00
  29                      1.00   0.00  0.00  0.00  0.99  0.01  0.00  0.00  0.95  0.00
  3                       1.00   0.00  0.00  0.00  1.00  0.00  0.00  0.00  0.00  0.00
  30                      2.36   0.00  0.00  0.00  0.99  0.01  0.00  0.00  0.00  0.00
  31                      1.00   0.00  0.00  0.00  1.00  0.00  0.00  0.00  0.96  0.00
  32                      1.00   0.00  0.00  0.00  1.00  0.00  0.00  0.00  0.00  0.00
  33                      1.00   0.00  0.00  0.00  1.00  0.00  0.00  0.00  0.00  0.00
  34                      1.00   0.02  0.00  0.00  0.98  0.00  0.00  0.00  0.00  0.00
  35                      1.00   0.02  0.00  0.00  0.97  0.01  0.00  0.00  0.92  0.00
  36                      1.00   0.02  0.00  0.00  0.97  0.00  0.00  0.00  0.01  0.00
  37                      1.00   0.02  0.00  0.00  0.97  0.00  0.00  0.00  0.01  0.00
  38                      2.43   0.04  0.00  0.00  0.95  0.01  0.00  0.00  0.00  0.00
  39                      1.00   0.03  0.01  0.00  0.96  0.00  0.00  0.00  0.92  0.00
  4                       1.00   0.00  0.00  0.00  1.00  0.00  0.00  0.00  0.00  0.00
  40                      1.00   0.03  0.00  0.00  0.97  0.00  0.00  0.00  0.00  0.00
  41                      1.00   0.03  0.00  0.00  0.97  0.00  0.00  0.00  0.05  0.00
  42                      1.00   0.04  0.00  0.00  0.08  0.89  0.00  0.00  0.00  0.00
  43                     16.20   0.00  0.08  0.00  0.92  0.00  0.00  0.00  0.93  0.00
  44                      1.00   0.00  0.00  0.00  0.99  0.01  0.00  0.00  0.00  0.00
  45                      1.00   0.00  0.00  0.00  0.99  0.01  0.00  0.00  0.00  0.00
  46                      1.00   0.00  0.00  0.00  1.00  0.00  0.00  0.00  0.00  0.00
  47                      1.08   0.00  0.00  0.00  1.00  0.00  0.00  0.00  0.00  0.00
  48                      1.00   0.00  0.00  0.00  1.00  0.00  0.00  0.00  0.00  0.00
  49                      1.00   0.00  0.00  0.00  1.00  0.00  0.00  0.00  0.00  0.00
  5                       1.00   0.00  0.00  0.00  1.00  0.00  0.00  0.00  0.00  0.00
  50                      1.81   0.00  0.00  0.00  1.00  0.00  0.00  0.00  0.00  0.00
  51                      1.00   0.00  0.00  0.00  1.00  0.00  0.00  0.00  0.00  0.00
  52                      1.00   0.00  0.00  0.00  1.00  0.00  0.00  0.00  0.00  0.00
  53                      1.27   0.00  0.00  0.00  1.00  0.00  0.00  0.00  0.00  0.00
  54                      1.00   0.00  0.00  0.00  1.00  0.00  0.00  0.00  0.02  0.00
  55                      1.99   0.00  0.00  0.00  1.00  0.00  0.00  0.00  0.00  0.00
  56                      1.00   0.00  0.00  0.00  1.00  0.00  0.00  0.00  0.00  0.00
  57                      1.00   0.00  0.00  0.00  1.00  0.00  0.00  0.00  0.00  0.00
  58                      1.00   0.00  0.00  0.00  1.00  0.00  0.00  0.00  0.00  0.00
  59                      1.00   0.00  0.00  0.00  1.00  0.00  0.00  0.00  0.01  0.00
  6                       1.45   0.00  0.00  0.00  0.99  0.01  0.00  0.00  0.99  0.00
  60                      1.00   0.00  0.00  0.00  1.00  0.00  0.00  0.00  0.00  0.00
  61                      1.00   0.00  0.00  0.00  0.99  0.01  0.00  0.00  0.00  0.00
  62                      1.00   0.00  0.00  0.00  0.99  0.01  0.00  0.00  0.04  0.00
  63                      1.16   0.00  0.00  0.00  0.99  0.01  0.00  0.00  0.01  0.00
  64                      1.00   0.00  0.00  0.00  0.99  0.01  0.00  0.00  0.00  0.00
  65                      1.00   0.00  0.00  0.00  0.99  0.01  0.00  0.00  0.01  0.00
  66                      1.00   0.01  0.00  0.00  0.99  0.01  0.00  0.00  0.00  0.00
  67                      1.00   0.01  0.00  0.00  0.98  0.01  0.00  0.00  0.01  0.00
  68                      1.00   0.01  0.00  0.00  0.99  0.01  0.00  0.00  0.01  0.00
  69                      1.00   0.01  0.00  0.00  0.98  0.01  0.00  0.00  0.00  0.00
  7                       1.00   0.00  0.00  0.00  0.99  0.01  0.00  0.00  0.98  0.00
  70                      1.00   0.01  0.00  0.00  0.98  0.01  0.00  0.00  0.00  0.00
  71                      1.00   0.01  0.00  0.00  0.98  0.01  0.00  0.00  0.00  0.00
  72                      1.00   0.01  0.00  0.00  0.98  0.01  0.00  0.00  0.00  0.00
  73                      1.00   0.01  0.00  0.00  0.98  0.01  0.00  0.00  0.02  0.00
  74                      1.00   0.01  0.00  0.00  0.98  0.01  0.00  0.00  0.00  0.00
  75                      1.00   0.00  0.01  0.00  0.98  0.01  0.00  0.00  0.04  0.00
  76                      1.00   0.00  0.00  0.00  0.99  0.00  0.00  0.00  0.03  0.00
  77                      1.00   0.00  0.00  0.00  1.00  0.00  0.00  0.00  0.04  0.00
  78                      1.00   0.00  0.00  0.00  1.00  0.00  0.00  0.00  0.02  0.00
  79                      1.00   0.00  0.00  0.00  1.00  0.00  0.00  0.00  0.01  0.00
  8                       1.09   0.00  0.00  0.00  0.97  0.02  0.00  0.00  0.00  0.00
  80                      1.00   0.00  0.00  0.00  1.00  0.00  0.00  0.00  1.00  0.00
  81                      1.45   0.75  0.25  0.00  0.00  0.00  0.00  0.00  0.00  0.00
  82                     11.61   0.32  0.43  0.00  0.26  0.00  0.00  0.00  0.77  0.00
  83                      1.00   0.00  0.32  0.00  0.68  0.00  0.00  0.00  0.98  0.00
  84                      1.00   0.00  0.00  0.00  1.00  0.00  0.00  0.00  0.00  0.00
  85                      1.86   0.00  0.00  0.00  1.00  0.00  0.00  0.00  0.01  0.00
  86                      1.00   0.00  0.00  0.00  1.00  0.00  0.00  0.00  0.00  0.00
  87                      1.00   0.00  0.00  0.00  0.00  1.00  0.00  0.00  0.00  0.00
  88                      3.87   0.75  0.11  0.00  0.15  0.00  0.00  0.00  0.90  0.00
  89                      1.00   0.00  1.00  0.00  0.00  0.00  0.00  0.00  0.00  0.00
  9                       2.71   0.00  0.00  0.00  0.03  0.97  0.00  0.00  0.99  0.00
  90                      1.00   0.00  0.00  0.00  0.99  0.01  0.00  0.00  0.95  0.00
  91                      1.00   0.00  0.00  0.00  1.00  0.00  0.00  0.00  1.00  0.00
  92                      1.00   0.00  0.00  0.00  1.00  0.00  0.00  0.00  1.00  0.00
  93                      1.00   0.00  0.00  0.00  1.00  0.00  0.00  0.00  0.99  0.00
  94                      2.10   0.00  0.00  0.00  0.00  0.00  0.00  1.00  0.00  0.00
  95                      1.00   0.00  0.57  0.00  0.43  0.00  0.00  0.00  0.96  0.00
  96                      9.77   0.00  0.00  0.00  0.00  0.00  0.00  1.00  0.00  0.00
  98                     14.75   1.00  0.00  0.00  0.00  0.00  0.00  0.00  0.00  0.00
  99                      3.06   1.00  0.00  0.00  0.00  0.00  0.00  0.00  0.00  0.00
  
  
  *************************
  Conduit Surcharge Summary
  *************************
  
  ----------------------------------------------------------------------------
                                                           Hours        Hours 
                         --------- Hours Full --------   Above Full   Capacity
  Conduit                Both Ends  Upstream  Dnstream   Normal Flow   Limited
  ----------------------------------------------------------------------------
  0                           0.03      0.04      0.06      0.05         0.01
  1                           0.05      0.06      0.07      0.07         0.03
  108                         3.60      3.60      3.60      0.11         0.01
  109                         0.01      0.01      3.60      0.01         0.01
  112                         3.60      3.60      3.60      0.11         0.01
  113                         3.60      3.60      3.60      0.11         0.01
  114                         0.01      0.01      3.60      0.01         0.01
  115                         0.01      0.01      3.60      0.01         0.01
  2                           0.06      0.07      0.06      0.08         0.06
  22                          0.01      0.01      3.48      0.01         0.01
  25                          0.01      0.01      0.01      0.01         0.01
  3                           0.05      0.06      0.06      0.08         0.05
  4                           0.01      0.06      0.01      0.18         0.01
  43                          0.01      0.01      3.16      0.01         0.01
  5                           0.01      0.01      0.01      0.11         0.01
  50                          0.01      0.01      0.03      0.01         0.01
  51                          0.03      0.03      0.03      0.03         0.02
  52                          0.03      0.03      0.03      0.01         0.01
  53                          0.03      0.03      0.03      0.01         0.01
  54                          0.03      0.03      0.03      0.01         0.02
  55                          0.03      0.03      0.03      0.03         0.03
  56                          0.03      0.03      0.03      0.04         0.03
  57                          0.02      0.03      0.02      0.05         0.02
  58                          0.01      0.02      0.01      0.05         0.01
  59                          0.01      0.01      0.01      0.04         0.01
  60                          0.01      0.01      0.01      0.04         0.01
  61                          0.01      0.01      0.01      0.05         0.01
  63                          0.01      0.01      0.01      0.01         0.01
  93                          0.01      0.01      0.01      0.01         0.01
  94                          0.01      0.01      0.01      0.03         0.01
  95                          0.01      0.01      0.01      0.01         0.01
  96                          0.01      0.01      0.01      0.01         0.01
  

  Analysis begun on:  Wed Jun 24 09:25:21 2026
  Analysis ended on:  Wed Jun 24 09:25:21 2026
  Total elapsed time: < 1 sec