
  EPA STORM WATER MANAGEMENT MODEL - VERSION 5.2 (Build 5.2.4)
  ------------------------------------------------------------

  
  ERROR 108: ambiguous outlet ID name for Subcatchment 11771.
  
  ERROR 108: ambiguous outlet ID name for Subcatchment 11771.1.
  
  ERROR 108: ambiguous outlet ID name for Subcatchment 14811.
  
  ERROR 108: ambiguous outlet ID name for Subcatchment 6790.
  
  ERROR 108: ambiguous outlet ID name for Subcatchment 6790.2.
  
  ERROR 108: ambiguous outlet ID name for Subcatchment 6832.
  
  ERROR 108: ambiguous outlet ID name for Subcatchment 6859.
  
  ERROR 108: ambiguous outlet ID name for Subcatchment 6883.
  
  ERROR 108: ambiguous outlet ID name for Subcatchment 6884.
  
  ERROR 108: ambiguous outlet ID name for Subcatchment 6885.
  
  ERROR 108: ambiguous outlet ID name for Subcatchment 6886.
  
  ERROR 108: ambiguous outlet ID name for Subcatchment 6887.
  
  ERROR 108: ambiguous outlet ID name for Subcatchment 6888.
  
  ERROR 108: ambiguous outlet ID name for Subcatchment 6890.
  
  ERROR 108: ambiguous outlet ID name for Subcatchment 6891.
  
  ERROR 108: ambiguous outlet ID name for Subcatchment 6892.
  
  ERROR 108: ambiguous outlet ID name for Subcatchment 6893.
  
  ERROR 108: ambiguous outlet ID name for Subcatchment 6894.
  
  ERROR 108: ambiguous outlet ID name for Subcatchment 6895.
  
  ERROR 108: ambiguous outlet ID name for Subcatchment 6896.
  
  ERROR 108: ambiguous outlet ID name for Subcatchment 6897.
  
  ERROR 108: ambiguous outlet ID name for Subcatchment 6898.
  
  ERROR 108: ambiguous outlet ID name for Subcatchment 6899.
  
  ERROR 108: ambiguous outlet ID name for Subcatchment 6900.
  
  ERROR 108: ambiguous outlet ID name for Subcatchment 6901.
  
  ERROR 108: ambiguous outlet ID name for Subcatchment 6902.
  
  ERROR 108: ambiguous outlet ID name for Subcatchment 6903.
  
  ERROR 108: ambiguous outlet ID name for Subcatchment 6909.
  
  ERROR 108: ambiguous outlet ID name for Subcatchment 6910.
  
  ERROR 108: ambiguous outlet ID name for Subcatchment 6911.
  
  ERROR 108: ambiguous outlet ID name for Subcatchment 7117.
  
  ERROR 108: ambiguous outlet ID name for Subcatchment 7117.1.
  
  ERROR 108: ambiguous outlet ID name for Subcatchment 8938.

  Analysis begun on:  Wed Jun 24 09:26:00 2026
  Analysis ended on:  Wed Jun 24 09:26:00 2026
  Total elapsed time: < 1 sec