
  EPA STORM WATER MANAGEMENT MODEL - VERSION 5.2 (Build 5.2.4)
  ------------------------------------------------------------

  WARNING 04: minimum elevation drop used for Conduit NE-14A
  WARNING 04: minimum elevation drop used for Conduit PDES_17
  WARNING 04: minimum elevation drop used for Conduit REG_31_OUT
  WARNING 04: minimum elevation drop used for Conduit REG_DWF_24_INTPIPE1
  WARNING 04: minimum elevation drop used for Conduit SWR00311550
  WARNING 04: minimum elevation drop used for Conduit SWR00347584
  WARNING 04: minimum elevation drop used for Conduit SWR00347585
  WARNING 04: minimum elevation drop used for Conduit SWR00349859
  WARNING 04: minimum elevation drop used for Conduit SWR00433272
  WARNING 04: minimum elevation drop used for Conduit SWR00441925
  WARNING 04: minimum elevation drop used for Conduit SWR00442726
  WARNING 04: minimum elevation drop used for Conduit SWR00444910
  WARNING 04: minimum elevation drop used for Conduit SWR00454396
  WARNING 04: minimum elevation drop used for Conduit SWR00468562
  WARNING 04: minimum elevation drop used for Conduit SWR00468564
  WARNING 04: minimum elevation drop used for Conduit SWR00516474
  WARNING 04: minimum elevation drop used for Conduit SWR00529530
  WARNING 04: minimum elevation drop used for Conduit SWR00585458
  WARNING 04: minimum elevation drop used for Conduit SWR00601820
  WARNING 04: minimum elevation drop used for Conduit SWR00670648-10IN
  WARNING 04: minimum elevation drop used for Conduit SWR00670648-6IN
  WARNING 04: minimum elevation drop used for Conduit SWR00670648-8IN
  WARNING 10: crest elevation raised to downstream invert for regulator Link FLAPGATES
  WARNING 10: crest elevation raised to downstream invert for regulator Link UPPERGATEHOUSE
  WARNING 02: maximum depth increased for Node 2872
  WARNING 02: maximum depth increased for Node 2879
  WARNING 02: maximum depth increased for Node 2883
  WARNING 02: maximum depth increased for Node GC-IN
  WARNING 02: maximum depth increased for Node GC_OUT
  WARNING 02: maximum depth increased for Node REG_DWF_06C
  WARNING 02: maximum depth increased for Node REG_DWF_35B
  WARNING 02: maximum depth increased for Node REG_WWF_11
  WARNING 02: maximum depth increased for Node SHOCKOECLEAN_12
  WARNING 02: maximum depth increased for Node SHOCKOECLEAN_13
  WARNING 02: maximum depth increased for Node SHOCKOECLEAN_15
  WARNING 02: maximum depth increased for Node SHOCKOECLEAN_19
  WARNING 02: maximum depth increased for Node SHOCKOECLEAN_20
  WARNING 02: maximum depth increased for Node SHOCKOECLEAN_21
  WARNING 02: maximum depth increased for Node SHOCKOECLEAN_22
  WARNING 02: maximum depth increased for Node SHOCKOECLEAN_23
  WARNING 02: maximum depth increased for Node SHOCKOECLEAN_24
  WARNING 02: maximum depth increased for Node SHOCKOECLEAN_25
  WARNING 02: maximum depth increased for Node SWR00381035
  WARNING 02: maximum depth increased for Node SWR00381051
  WARNING 02: maximum depth increased for Node SWR00687310A
  
  ****************
  Analysis Options
  ****************
  Flow Units ............... CFS
  Process Models:
    Rainfall/Runoff ........ YES
    RDII ................... YES
    Snowmelt ............... NO
    Groundwater ............ NO
    Flow Routing ........... YES
    Ponding Allowed ........ NO
    Water Quality .......... NO
  Infiltration Method ...... HORTON
  Flow Routing Method ...... DYNWAVE
  Surcharge Method ......... EXTRAN
  Starting Date ............ 11/30/2017 00:00:00
  Ending Date .............. 01/01/2018 00:00:00
  Antecedent Dry Days ...... 5.0
  Report Time Step ......... 00:05:00
  Wet Time Step ............ 00:05:00
  Dry Time Step ............ 01:00:00
  Routing Time Step ........ 10.00 sec
  Variable Time Step ....... YES
  Maximum Trials ........... 8
  Number of Threads ........ 1
  Head Tolerance ........... 0.005000 ft
  
  
  **********************           Volume        Volume
  Rainfall Dependent I/I        acre-feet      10^6 gal
  **********************        ---------     ---------
  Sewershed Rainfall ......      3843.573      1252.486
  RDII Produced ...........        25.668         8.364
  RDII Ratio ..............         0.007
  
  
  **************************        Volume         Depth
  Runoff Quantity Continuity     acre-feet        inches
  **************************     ---------       -------
  Total Precipitation ......       903.233         0.933
  Evaporation Loss .........         0.000         0.000
  Infiltration Loss ........       646.986         0.668
  Surface Runoff ...........       238.429         0.246
  Final Storage ............        18.484         0.019
  Continuity Error (%) .....        -0.074
  
  
  **************************        Volume        Volume
  Flow Routing Continuity        acre-feet      10^6 gal
  **************************     ---------     ---------
  Dry Weather Inflow .......     -1106.122      -360.447
  Wet Weather Inflow .......       238.406        77.688
  Groundwater Inflow .......         0.000         0.000
  RDII Inflow ..............        25.670         8.365
  External Inflow ..........         0.000         0.000
  External Outflow .........       724.587       236.117
  Flooding Loss ............       163.978        53.435
  Evaporation Loss .........         0.000         0.000
  Exfiltration Loss ........         0.000         0.000
  Initial Stored Volume ....        27.241         8.877
  Final Stored Volume ......        46.274        15.079
  Continuity Error (%) .....      -600.598
  
  
  *************************
  Highest Continuity Errors
  *************************
  Node REG_WWF_11_OF2 (-22.91%)
  Node REG_WWF_11 (-13.19%)
  Node SWR00407320 (12.88%)
  Node WWTP_WETWELL (-11.18%)
  Node REG_WWF_18_OF2 (10.49%)
  
  
  ***************************
  Time-Step Critical Elements
  ***************************
  Link SWR00597901 (52.21%)
  Link REG_DWF_24_INTPIPE1 (28.85%)
  
  
  ********************************
  Highest Flow Instability Indexes
  ********************************
  Link REG_DWF_14_INTORI2 (142)
  Link FLAPGATES (127)
  Link P17310 (118)
  Link SWR00670648-10IN (117)
  Link SWR00671394A (114)
  
  
  *********************************
  Most Frequent Nonconverging Nodes
  *********************************
  Node CSO04_OUTFALL (11.36%)
  Node CSO05_OUTFALL (11.36%)
  Node CSO06_OUTFALL (11.36%)
  Node CSO07_OUTFALL (11.36%)
  Node CSO09_OUTFALL (11.36%)
  
  
  *************************
  Routing Time Step Summary
  *************************
  Minimum Time Step           :     0.50 sec
  Average Time Step           :     9.35 sec
  Maximum Time Step           :    10.00 sec
  % of Time in Steady State   :     0.00
  Average Iterations per Step :     4.69
  % of Steps Not Converging   :    11.36
  Time Step Frequencies       :
     10.000 -  5.493 sec      :    98.72 %
      5.493 -  3.017 sec      :     0.86 %
      3.017 -  1.657 sec      :     0.23 %
      1.657 -  0.910 sec      :     0.13 %
      0.910 -  0.500 sec      :     0.06 %
  
  
  ***************************
  Subcatchment Runoff Summary
  ***************************
  
  ------------------------------------------------------------------------------------------------------------------------------
                            Total      Total      Total      Total     Imperv       Perv      Total       Total     Peak  Runoff
                           Precip      Runon       Evap      Infil     Runoff     Runoff     Runoff      Runoff   Runoff   Coeff
  Subcatchment                 in         in         in         in         in         in         in    10^6 gal      CFS
  ------------------------------------------------------------------------------------------------------------------------------
  004-01                     1.14       0.00       0.00       0.80       0.32       0.00       0.32        0.55     5.30   0.283
  004-02                     1.14       0.00       0.00       0.84       0.29       0.00       0.29        0.23     2.47   0.256
  005-01                     1.14       0.00       0.00       0.29       0.83       0.00       0.83        0.27     2.87   0.729
  005-DS                     1.14       0.00       0.00       0.79       0.34       0.00       0.34        0.09     1.01   0.298
  006-01                     0.88       0.00       0.00       0.59       0.27       0.00       0.27        0.72     8.18   0.308
  006-02                     0.88       0.00       0.00       0.63       0.23       0.00       0.23        1.28    15.69   0.267
  006-03                     0.88       0.00       0.00       0.56       0.31       0.00       0.31        3.55    31.29   0.349
  006-04                     0.88       0.00       0.00       0.47       0.39       0.00       0.39        1.32    15.43   0.442
  006-05                     0.88       0.00       0.00       0.51       0.35       0.00       0.35        0.85    10.29   0.399
  006-11                     0.88       0.00       0.00       0.71       0.17       0.00       0.17        0.24     3.66   0.188
  006-12                     0.88       0.00       0.00       0.51       0.35       0.00       0.35        2.66    27.88   0.400
  006-13                     0.88       0.00       0.00       0.56       0.30       0.00       0.30        1.83    16.77   0.344
  006-14                     0.88       0.00       0.00       0.59       0.28       0.00       0.28        0.98    14.37   0.317
  006-15                     0.88       0.00       0.00       0.56       0.30       0.00       0.30        1.63    21.37   0.344
  006-16                     0.77       0.00       0.00       0.51       0.24       0.00       0.24        1.73    13.42   0.313
  006-21                     0.88       0.00       0.00       0.69       0.18       0.00       0.18        0.69     8.78   0.201
  006-22                     0.88       0.00       0.00       0.72       0.15       0.00       0.15        0.63     8.83   0.175
  006-23                     0.88       0.00       0.00       0.73       0.15       0.00       0.15        0.81    11.82   0.165
  006-24                     0.77       0.00       0.00       0.62       0.14       0.00       0.14        0.55     4.56   0.183
  006-25                     0.77       0.00       0.00       0.62       0.14       0.00       0.14        0.17     1.88   0.186
  006-26                     0.77       0.00       0.00       0.62       0.14       0.00       0.14        0.19     1.64   0.186
  006-27                     0.77       0.00       0.00       0.65       0.12       0.00       0.12        0.18     1.44   0.150
  006-28                     0.88       0.00       0.00       0.64       0.23       0.00       0.23        1.72    22.46   0.260
  006-29                     0.77       0.00       0.00       0.52       0.23       0.00       0.23        0.72     5.46   0.300
  006-30                     0.77       0.00       0.00       0.63       0.14       0.00       0.14        0.42     3.33   0.176
  006-31                     0.77       0.00       0.00       0.63       0.13       0.00       0.13        0.32     2.83   0.169
  006-32                     0.77       0.00       0.00       0.65       0.12       0.00       0.12        0.06     1.45   0.156
  006-33                     0.77       0.00       0.00       0.61       0.15       0.00       0.15        0.63     5.06   0.194
  006-34                     0.77       0.00       0.00       0.58       0.18       0.00       0.18        0.08     1.11   0.230
  006-35                     0.77       0.00       0.00       0.61       0.15       0.00       0.15        0.04     0.62   0.194
  006-36                     0.77       0.00       0.00       0.66       0.10       0.00       0.10        0.29     2.57   0.131
  006-37                     0.77       0.00       0.00       0.67       0.09       0.00       0.09        0.15     1.94   0.117
  006-37A                    0.77       0.00       0.00       0.71       0.05       0.00       0.05        0.07     0.92   0.063
  006-38                     0.77       0.00       0.00       0.61       0.15       0.00       0.15        0.73     6.35   0.196
  006-40                     0.77       0.00       0.00       0.59       0.17       0.00       0.17        0.18     2.11   0.220
  006-41                     0.77       0.00       0.00       0.63       0.14       0.00       0.14        0.42     3.58   0.178
  006-42                     0.77       0.00       0.00       0.50       0.26       0.00       0.26        0.55     4.37   0.333
  006-43                     0.77       0.00       0.00       0.60       0.16       0.00       0.16        0.66     5.29   0.208
  006-44                     0.77       0.00       0.00       0.49       0.27       0.00       0.27        1.31    10.23   0.347
  006-45                     0.77       0.00       0.00       0.60       0.16       0.00       0.16        0.62     5.31   0.206
  006-46                     1.14       0.00       0.00       0.89       0.24       0.00       0.24        1.19    12.22   0.210
  006-47                     1.14       0.00       0.00       0.83       0.30       0.00       0.30        0.18     1.87   0.264
  006-48                     1.14       0.00       0.00       0.77       0.36       0.00       0.36        0.93     9.42   0.317
  006-49                     1.14       0.00       0.00       0.77       0.36       0.00       0.36        0.33     3.52   0.319
  006-50                     1.14       0.00       0.00       0.81       0.32       0.00       0.32        1.69    16.04   0.279
  006-51                     1.14       0.00       0.00       0.54       0.54       0.04       0.58        0.36     4.11   0.510
  006-52                     1.14       0.00       0.00       0.54       0.54       0.04       0.58        0.33     3.85   0.511
  006-53                     1.14       0.00       0.00       0.61       0.51       0.00       0.51        1.40    13.55   0.449
  006-54                     1.14       0.00       0.00       0.53       0.55       0.04       0.59        0.49     5.76   0.520
  006-61                     1.14       0.00       0.00       0.52       0.48       0.06       0.54        0.05     0.88   0.473
  006A-01                    0.77       0.00       0.00       0.61       0.15       0.00       0.15        0.12     1.79   0.194
  006B-01                    0.77       0.00       0.00       0.61       0.15       0.00       0.15        0.02     0.70   0.198
  006C-01                    0.77       0.00       0.00       0.66       0.09       0.00       0.09        0.06     0.79   0.111
  006C-02                    0.77       0.00       0.00       0.54       0.18       0.00       0.18        0.17     2.68   0.236
  006D-01                    0.77       0.00       0.00       0.60       0.16       0.00       0.16        0.44     3.59   0.207
  006E-01                    0.77       0.00       0.00       0.64       0.13       0.00       0.13        0.19     1.59   0.165
  006E-02                    0.77       0.00       0.00       0.60       0.16       0.00       0.16        0.43     3.44   0.207
  006E-03                    0.77       0.00       0.00       0.63       0.14       0.00       0.14        0.32     2.83   0.177
  007-01                     1.14       0.00       0.00       0.55       0.47       0.03       0.50        0.38     4.65   0.442
  008-01                     1.14       0.00       0.00       0.52       0.50       0.03       0.53        0.50     5.94   0.461
  008-02                     1.14       0.00       0.00       0.74       0.34       0.00       0.34        0.06     0.76   0.303
  009-01                     1.14       0.00       0.00       0.52       0.48       0.05       0.53        0.16     2.42   0.467
  010-01                     1.14       0.00       0.00       0.63       0.43       0.00       0.43        2.06    22.17   0.374
  010-02                     1.14       0.00       0.00       0.80       0.29       0.00       0.29        0.43     4.98   0.251
  011-01                     1.14       0.00       0.00       0.72       0.36       0.00       0.36        1.57    16.40   0.312
  011-02                     1.14       0.00       0.00       0.84       0.25       0.00       0.25        0.34     3.70   0.219
  011-03                     1.14       0.00       0.00       0.85       0.25       0.00       0.25        0.53     5.69   0.217
  012-01                     1.14       0.00       0.00       0.74       0.38       0.00       0.38        0.93     9.14   0.335
  014-01                     1.14       0.00       0.00       0.66       0.46       0.00       0.46        0.41     4.11   0.402
  014-02                     1.14       0.00       0.00       0.84       0.29       0.00       0.29        0.24     2.48   0.253
  014-03                     1.14       0.00       0.00       0.80       0.33       0.00       0.33        0.95     9.24   0.285
  014-04                     1.14       0.00       0.00       0.78       0.35       0.00       0.35        1.06    10.19   0.308
  014-05                     1.14       0.00       0.00       0.64       0.48       0.00       0.48        0.60     5.84   0.423
  014-06                     1.14       0.00       0.00       0.59       0.53       0.00       0.53        0.23     2.34   0.467
  014-07                     1.14       0.00       0.00       0.58       0.54       0.00       0.54        0.72     6.95   0.475
  014-08                     1.14       0.00       0.00       0.56       0.55       0.00       0.55        0.18     1.73   0.486
  015-01                     1.14       0.00       0.00       0.65       0.47       0.00       0.47        3.24    30.19   0.414
  015-02                     1.14       0.00       0.00       0.72       0.41       0.00       0.41        3.69    34.03   0.356
  016-01                     1.14       0.00       0.00       0.77       0.35       0.00       0.35        1.05    10.30   0.309
  017-01                     1.17       0.00       0.00       0.97       0.19       0.00       0.19        0.08     1.48   0.164
  017-02                     1.17       0.00       0.00       0.69       0.47       0.00       0.47        0.47     5.27   0.399
  018-01                     1.17       0.00       0.00       0.85       0.32       0.00       0.32        0.51     8.06   0.275
  019-01                     0.88       0.00       0.00       0.53       0.28       0.00       0.28        0.41     6.21   0.314
  019-02                     0.88       0.00       0.00       0.55       0.26       0.00       0.26        0.14     2.47   0.297
  019-03                     0.88       0.00       0.00       0.68       0.16       0.00       0.16        0.80    11.98   0.178
  019-04                     0.88       0.00       0.00       0.72       0.12       0.00       0.12        0.35     5.94   0.141
  019-05                     0.88       0.00       0.00       0.69       0.15       0.00       0.15        0.13     2.85   0.171
  020-01                     0.88       0.00       0.00       0.39       0.46       0.00       0.46        0.91    13.85   0.526
  020-02                     0.88       0.00       0.00       0.51       0.35       0.00       0.35        0.74    10.99   0.401
  020-03                     0.88       0.00       0.00       0.64       0.23       0.00       0.23        0.77    11.69   0.262
  021-01                     1.14       0.00       0.00       0.85       0.27       0.00       0.28        1.12    11.04   0.241
  021-02                     1.14       0.00       0.00       0.92       0.22       0.00       0.22        0.33     3.37   0.189
  021-03                     1.14       0.00       0.00       0.85       0.28       0.00       0.28        0.29     2.96   0.244
  021-04                     1.14       0.00       0.00       0.75       0.38       0.00       0.38        1.26    12.05   0.331
  021-05                     1.14       0.00       0.00       0.72       0.40       0.00       0.40        1.20    11.96   0.352
  021-06                     1.14       0.00       0.00       0.65       0.47       0.00       0.47        0.19     1.96   0.415
  024-01                     1.14       0.00       0.00       0.95       0.19       0.00       0.19        0.36     3.61   0.163
  024-02                     1.14       0.00       0.00       0.95       0.19       0.00       0.19        0.32     3.28   0.164
  024-03                     1.14       0.00       0.00       1.03       0.11       0.00       0.11        0.08     0.86   0.094
  024-04                     1.14       0.00       0.00       1.08       0.06       0.00       0.06        0.06     0.63   0.054
  025-01                     1.14       0.00       0.00       0.90       0.23       0.00       0.23        0.42     3.99   0.205
  026-01                     1.14       0.00       0.00       0.97       0.17       0.00       0.17        0.46     4.68   0.146
  028-01                     1.14       0.00       0.00       0.90       0.23       0.00       0.23        0.13     1.25   0.200
  028-02                     1.14       0.00       0.00       0.94       0.19       0.00       0.19        0.17     1.82   0.167
  028-03                     1.14       0.00       0.00       0.94       0.20       0.00       0.20        0.04     0.43   0.171
  028-04                     1.14       0.00       0.00       0.99       0.15       0.00       0.15        0.11     1.28   0.131
  028-05                     1.14       0.00       0.00       0.94       0.19       0.00       0.19        0.22     2.27   0.170
  028-06                     1.14       0.00       0.00       0.75       0.37       0.00       0.37        0.08     0.83   0.327
  028-07                     1.14       0.00       0.00       0.87       0.26       0.00       0.26        0.05     0.55   0.225
  031-01                     0.77       0.00       0.00       0.61       0.15       0.00       0.15        0.41     3.77   0.196
  031-02                     1.14       0.00       0.00       0.90       0.23       0.00       0.23        0.49     5.09   0.205
  033-01                     1.17       0.00       0.00       1.04       0.11       0.00       0.11        0.18     3.42   0.094
  034-01                     1.14       0.00       0.00       0.76       0.36       0.00       0.36        0.38     3.84   0.317
  034-02                     1.14       0.00       0.00       0.70       0.43       0.00       0.43        0.28     2.88   0.376
  035-01                     1.14       0.00       0.00       0.77       0.36       0.00       0.36        0.27     2.85   0.313
  035-02                     1.14       0.00       0.00       0.72       0.34       0.08       0.42        0.04     0.63   0.367
  039-01                     1.14       0.00       0.00       0.85       0.28       0.00       0.28        0.34     3.54   0.243
  039-02                     1.14       0.00       0.00       0.91       0.22       0.00       0.22        0.78     7.80   0.196
  FROMCOUNTYHC-11            0.77       0.00       0.00       0.65       0.12       0.00       0.12        0.35     2.75   0.153
  FROMCOUNTYHC-12            0.77       0.00       0.00       0.65       0.12       0.00       0.12        0.19     1.65   0.153
  FROMCOUNTYHC-14            0.77       0.00       0.00       0.63       0.11       0.00       0.11        1.98    18.40   0.138
  FROMCOUNTYHC-15            0.77       0.00       0.00       0.65       0.09       0.00       0.09        0.21     2.32   0.116
  FROMCOUNTYHC-16            0.77       0.00       0.00       0.61       0.12       0.00       0.12        0.22     2.13   0.161
  FROMCOUNTYHC-17            0.77       0.00       0.00       0.70       0.05       0.00       0.05        0.05     1.19   0.070
  FROMCOUNTYHC-18            0.77       0.00       0.00       0.61       0.12       0.00       0.12        0.16     1.64   0.161
  FROMCOUNTYHC-19            0.77       0.00       0.00       0.54       0.18       0.00       0.18        0.04     0.49   0.231
  SH-12B                     0.77       0.00       0.00       0.63       0.13       0.00       0.13        0.23     1.83   0.169
  SH-CK1                     0.77       0.00       0.00       0.67       0.08       0.00       0.08        0.25     2.73   0.103
  SH-CK2                     0.77       0.00       0.00       0.67       0.04       0.00       0.04        0.05     1.60   0.057
  SH-CK3                     0.77       0.00       0.00       0.61       0.12       0.00       0.12        0.16     1.60   0.161
  SH-CK4                     0.77       0.00       0.00       0.66       0.09       0.00       0.09        0.25     2.94   0.111
  
  
  ******************
  Node Depth Summary
  ******************
  
  ---------------------------------------------------------------------------------
                                 Average  Maximum  Maximum  Time of Max    Reported
                                   Depth    Depth      HGL   Occurrence   Max Depth
  Node                 Type         Feet     Feet     Feet  days hr:min        Feet
  ---------------------------------------------------------------------------------
  105NE002             JUNCTION     0.00     0.00   193.74     0  00:00        0.00
  105NE020             JUNCTION     0.47     0.58   187.45     9  15:31        0.58
  17348                JUNCTION     0.83     8.21     8.00    10  17:13        8.20
  27345                JUNCTION     0.01     0.48   101.01     9  12:59        0.48
  27349                JUNCTION     0.01     0.51    93.97     9  13:07        0.51
  27353                JUNCTION     0.01     0.30    70.80     9  13:18        0.30
  27357                JUNCTION     0.01     0.55    72.37     9  13:16        0.55
  2870                 JUNCTION     0.00     0.19    62.19     9  13:29        0.19
  2872                 JUNCTION     0.01     0.57    73.71     9  13:24        0.57
  2873                 JUNCTION     0.01     0.57    78.07     9  13:15        0.57
  2874                 JUNCTION     0.01     0.44    73.71     9  13:24        0.44
  2876                 JUNCTION     0.01     0.37    84.37     9  13:12        0.37
  2878                 JUNCTION     0.01     0.47    98.47     9  13:03        0.47
  2879                 JUNCTION     0.01     0.31    88.71     9  13:07        0.31
  2880                 JUNCTION     0.01     0.33   106.33     9  12:56        0.33
  2881                 JUNCTION     0.02     1.11   117.11     9  12:50        1.11
  2882                 JUNCTION     0.02     0.84   112.84     9  12:54        0.84
  2883                 JUNCTION     0.01     0.32   118.32     9  12:42        0.31
  6347                 JUNCTION     0.21     0.59    88.57     9  12:47        0.59
  7568                 JUNCTION     0.00     0.00    68.01     0  00:00        0.00
  ADDED-MH-1           JUNCTION     0.12     0.34    55.69     9  12:46        0.33
  ARCH_BASCULE         JUNCTION     1.33     1.79    -0.20    11  20:13        1.78
  BOX2EGO              JUNCTION     0.00     0.00     2.00     0  00:00        0.00
  BOX2EGO_US           JUNCTION     2.12     9.51     8.01    10  17:13        9.49
  BOX_BASCULE          JUNCTION     0.10     1.53    -0.36     9  15:06        1.52
  BYRD_ST_FLOW_CONTROL JUNCTION     0.61     9.47    11.09    10  00:05        9.45
  COC_IN               JUNCTION     1.80    10.24    11.14    10  00:04       10.24
  COC_INLET            JUNCTION     0.00     0.00     1.79     0  00:00        0.00
  COC_OUT              JUNCTION     0.92    10.35    11.15    10  00:04       10.35
  COC_OUTLET           JUNCTION     0.00     0.00     1.60     0  00:00        0.00
  CSO3_VPI_02          JUNCTION     0.07     2.37    12.14     9  14:06        2.35
  CSO3_VPI_03          JUNCTION     0.02     1.27    13.83     9  14:00        1.25
  CSO3_VPI_04          JUNCTION     0.18     4.47    11.09    10  00:05        4.46
  CSO3_VPI_05          JUNCTION     0.01     2.25    16.67     9  14:04        2.23
  CSO3_VPI_06          JUNCTION     0.00     0.81    19.48     9  14:03        0.78
  DIVERSIONCOND_US     JUNCTION     2.43    11.18    11.18     9  23:59       11.11
  DSPS-INTAKE-BOX      JUNCTION     0.19     4.56     7.99    10  17:14        4.56
  DUMMY1               JUNCTION     0.00     0.00     0.00     0  00:00        0.00
  DUMMY2               JUNCTION     0.00     0.00     0.00     0  00:00        0.00
  DUMMY3               JUNCTION     0.00     0.00     0.00     0  00:00        0.00
  DUMMY4               JUNCTION     0.00     0.00     0.00     0  00:00        0.00
  DUMMY5               JUNCTION     0.00     0.00     0.00     0  00:00        0.00
  DUMMY6               JUNCTION     0.00     0.00     0.00     0  00:00        0.00
  DUMMY7               JUNCTION     0.00     0.00     0.00     0  00:00        0.00
  EGO_CHANNEL_US       JUNCTION     0.00     0.00     1.13     0  00:00        0.00
  FM_DD_001            JUNCTION   122.88   363.64   474.81     9  16:42      172.31
  GC-IN                JUNCTION     1.28     8.92    -9.91     9  19:11        8.73
  GC_OUT               JUNCTION     1.58     9.41    -9.92     9  19:07        9.40
  INLET_CHAMBER        JUNCTION     4.36    17.89    -0.69     9  15:06       17.84
  INLET_CHAMBER_B      JUNCTION     2.64    12.78    -5.80     9  15:04       12.73
  INT00561948          JUNCTION     0.58     0.68    79.44    10  15:44        0.68
  INT00660963          JUNCTION     2.62    12.88    11.08    10  00:05       12.87
  INT00671217          JUNCTION     0.23     1.50    29.72     9  14:01        1.50
  INT_LJRI3_01         JUNCTION     0.61     0.71    81.44    10  15:41        0.71
  INT_LJRI3_02         JUNCTION     0.60     0.69    82.40    10  15:40        0.69
  INT_LJRI3_03         JUNCTION     0.60     0.70    83.06    10  15:39        0.70
  INT_LJRI3_04         JUNCTION     0.60     0.70    85.89    10  15:37        0.70
  INT_LJRI3_05         JUNCTION     0.61     0.70    87.20    10  15:33        0.70
  INT_LJRI3_06         JUNCTION     0.64     0.74    87.42    10  15:33        0.74
  INT_LJRI3_07         JUNCTION     0.65     0.77    88.57    10  15:31        0.77
  JCT-10               JUNCTION     0.00     0.35    61.77     9  13:59        0.31
  JCT-12               JUNCTION     0.00     0.00     0.00     0  00:00        0.00
  LGH                  JUNCTION     1.81     9.22     8.02    10  17:13        9.21
  LG_OVERFLOW_RELIEF   JUNCTION     1.43    14.92    -0.71     9  15:03       14.90
  MCCLOY_PUMP_DISCH    JUNCTION     0.10    22.16   126.41     9  12:45        7.07
  MH_78IN_TIEIN        JUNCTION     0.52     1.55    31.75     9  13:22        1.51
  MN_001               JUNCTION     0.59     1.71    21.31     9  13:26        1.71
  MN_002               JUNCTION     0.27     1.07    52.52     9  13:17        1.04
  MN_004               JUNCTION     0.30     1.35     5.87     9  13:43        1.35
  MN_005               JUNCTION     0.01     0.19    48.96     9  13:58        0.19
  MN_007               JUNCTION     0.41     1.17    97.44     9  13:02        1.17
  MN_008               JUNCTION     0.10     0.47     0.66     9  14:14        0.47
  PUMP_DISCH_HAMPTON   JUNCTION    19.06    28.06   185.06    22  19:58       27.99
  REG_DWF_04           JUNCTION     0.15     2.38     5.47     9  13:43        2.38
  REG_DWF_04_INT2      JUNCTION     0.23     1.07     3.49     9  14:02        1.05
  REG_DWF_04_OF        JUNCTION     0.00     0.40     4.96     9  13:43        0.40
  REG_DWF_05           JUNCTION     0.05     0.28     0.05     9  13:59        0.28
  REG_DWF_05_INT1      JUNCTION     0.06     4.40    -0.16     9  15:20        4.18
  REG_DWF_05_INT3      JUNCTION     1.09     8.07    -0.20     9  15:20        7.85
  REG_DWF_05_OF        JUNCTION     0.00     0.00     0.77     0  00:00        0.00
  REG_DWF_06           JUNCTION     3.08     6.46    -0.37     9  15:09        6.45
  REG_DWF_06A          JUNCTION     0.07     0.51    79.35    22  20:02        0.37
  REG_DWF_06A_INT1     JUNCTION     0.07     0.50    75.63    22  20:02        0.39
  REG_DWF_06B          JUNCTION     0.05     0.35    80.59    22  20:03        0.31
  REG_DWF_06B_INT1     JUNCTION     0.04     0.30    80.47    22  20:03        0.28
  REG_DWF_06B_INT2     JUNCTION     0.05     0.85    78.33     9  12:50        0.85
  REG_DWF_06C          JUNCTION     0.17     1.54    85.92     9  12:51        1.54
  REG_DWF_06D          JUNCTION     0.28     0.73    89.05     9  12:47        0.72
  REG_DWF_06E          JUNCTION     0.27     0.71    96.13     9  12:46        0.71
  REG_DWF_06_INT2      JUNCTION     4.92     8.65    -0.20     9  15:05        8.48
  REG_DWF_07           JUNCTION     0.07     1.51    22.56     9  13:59        1.48
  REG_DWF_07_INT2      JUNCTION     0.06     0.36    20.74     9  13:59        0.36
  REG_DWF_07_OF1       JUNCTION     0.00     0.00    22.99     0  00:00        0.00
  REG_DWF_07_OF2       JUNCTION     0.00     0.00    23.33     0  00:00        0.00
  REG_DWF_08           JUNCTION     0.09     2.50    57.97     9  13:58        2.47
  REG_DWF_08_INT1      JUNCTION     0.10     0.80    55.71     9  13:57        0.80
  REG_DWF_08_OF1       JUNCTION     0.00     0.10    57.44     9  13:57        0.08
  REG_DWF_09           JUNCTION     1.87     2.49    57.02     9  13:58        2.48
  REG_DWF_09_INT2      JUNCTION     0.12     0.97    53.52     9  13:57        0.96
  REG_DWF_09_OF1       JUNCTION     0.05     0.46    56.09     9  13:58        0.46
  REG_DWF_10           JUNCTION     0.21     2.05    39.22     9  13:59        2.04
  REG_DWF_10_INT       JUNCTION     0.20     0.96    37.43     9  13:59        0.96
  REG_DWF_10_OF        JUNCTION     0.00     0.22    36.99     9  13:59        0.22
  REG_DWF_11           JUNCTION     0.15     6.88    42.62     9  14:00        6.59
  REG_DWF_11_INT2      JUNCTION     0.31     3.02    38.09     9  14:06        2.90
  REG_DWF_11_OF        JUNCTION     0.00     2.31    38.98     9  14:05        2.14
  REG_DWF_12_INT       JUNCTION     0.14     4.31    71.36     9  13:58        4.27
  REG_DWF_12_OF        JUNCTION     0.00     0.24    67.29     9  13:57        0.17
  REG_DWF_13           JUNCTION     1.15     4.84     0.31     9  14:54        4.84
  REG_DWF_14           JUNCTION     0.15     1.74     1.41     9  13:46        1.74
  REG_DWF_14_INT2      JUNCTION     0.50     2.23     0.77     9  13:46        2.23
  REG_DWF_15           JUNCTION     0.17     8.87    55.83     9  13:47        6.08
  REG_DWF_15ARCH       JUNCTION     0.37     3.97    52.79     9  13:42        3.91
  REG_DWF_15_INT2      JUNCTION     0.91     1.91    45.66     9  14:27        1.90
  REG_DWF_16           JUNCTION     0.17     5.62    58.21     9  13:23        5.60
  REG_DWF_16_INT2      JUNCTION     1.15     1.72    48.35     9  14:24        1.72
  REG_DWF_16_OF1       JUNCTION     0.00     0.00    55.00     0  00:00        0.00
  REG_DWF_17           JUNCTION     0.28     0.90    56.74     9  14:01        0.90
  REG_DWF_17_INT2      JUNCTION     1.18     1.66    53.70     9  14:20        1.66
  REG_DWF_17_OF2       JUNCTION     0.00     0.00    57.20     0  00:00        0.00
  REG_DWF_18           JUNCTION     0.14     4.77    61.69     9  11:57        4.72
  REG_DWF_18_INT2      JUNCTION     1.32     1.62    54.99     9  14:22        1.62
  REG_DWF_18_OF        JUNCTION     0.00     0.00    58.31     0  00:00        0.00
  REG_DWF_19A          JUNCTION     0.10     2.63   149.80     9  13:06        2.63
  REG_DWF_19A_INT1     JUNCTION     0.09     2.40   148.90     9  13:07        2.36
  REG_DWF_19A_INT2     JUNCTION     0.20     2.04   146.55     9  13:03        2.03
  REG_DWF_19A_OF       JUNCTION     0.00     0.57   148.64     9  13:06        0.57
  REG_DWF_19A_US       JUNCTION     0.09     1.45   149.80     9  13:06        1.44
  REG_DWF_19B          JUNCTION     0.03     2.18   148.70    22  19:57        2.13
  REG_DWF_19B_OF       JUNCTION     0.00     0.31   148.33    22  19:59        0.28
  REG_DWF_19_INT2      JUNCTION     0.05     0.72   146.74    22  19:58        0.71
  REG_DWF_19_OF2       JUNCTION     0.00     0.33    89.70     9  13:08        0.33
  REG_DWF_20           JUNCTION     0.27     6.57   108.41     9  12:59        6.57
  REG_DWF_20INT2       JUNCTION     0.48     6.31   107.48     9  12:59        6.26
  REG_DWF_20OF         JUNCTION     0.01     0.87   106.35     9  12:59        0.87
  REG_DWF_21           JUNCTION     0.17     4.06     1.35     9  13:50        4.06
  REG_DWF_21_INT2      JUNCTION     0.18     3.68    -0.36     9  14:56        3.65
  REG_DWF_21_OF        JUNCTION     0.01     1.41     0.36     9  13:28        1.34
  REG_DWF_24_INT1      JUNCTION     0.35     3.75    21.95     9  14:08        3.71
  REG_DWF_24_INT2      JUNCTION     0.18     3.64    21.84     9  14:10        3.58
  REG_DWF_24_INT3      JUNCTION     0.18     4.40    21.23     9  14:10        4.36
  REG_DWF_24_INT4      JUNCTION     0.21     5.87    20.42     9  14:05        5.82
  REG_DWF_24_OF1       JUNCTION     0.00     0.00    19.03     0  00:00        0.00
  REG_DWF_24_OF2       JUNCTION     0.00     0.00    15.64     0  00:00        0.00
  REG_DWF_25_INT1      JUNCTION     0.11     0.40    32.34     9  14:02        0.40
  REG_DWF_25_INT2      JUNCTION     0.14     0.52    31.88     9  14:03        0.52
  REG_DWF_25_INT3      JUNCTION     0.17     0.73    31.02     9  14:03        0.73
  REG_DWF_25_OF        JUNCTION     0.00     0.00    32.01     0  00:00        0.00
  REG_DWF_26_INT       JUNCTION     1.28     1.84    27.84     9  13:38        1.84
  REG_DWF_26_OF1       JUNCTION     0.00     0.00    27.39     0  00:00        0.00
  REG_DWF_26_OF2       JUNCTION     0.00     0.00    27.13     0  00:00        0.00
  REG_DWF_28A          JUNCTION     0.03     0.25    75.32     9  13:35        0.25
  REG_DWF_28A_INT1     JUNCTION     0.07     0.41    74.48     9  13:36        0.41
  REG_DWF_28A_INT2     JUNCTION     0.07     0.39    74.38     9  13:36        0.38
  REG_DWF_28A_OF       JUNCTION     0.00     0.00    77.73     0  00:00        0.00
  REG_DWF_28E          JUNCTION     0.12     1.66    66.51     9  13:36        1.52
  REG_DWF_28E_INT1     JUNCTION     0.08     0.62    65.47     9  13:36        0.58
  REG_DWF_28E_INT2     JUNCTION     0.06     0.37    64.87     9  13:36        0.36
  REG_DWF_28E_OF       JUNCTION     0.00     0.00    63.23     0  00:00        0.00
  REG_DWF_31_INT       JUNCTION     0.14     0.47   120.68     9  13:14        0.47
  REG_DWF_31_OF        JUNCTION     0.00     0.00   118.23     0  00:00        0.00
  REG_DWF_33           JUNCTION     0.04     0.63   174.16     9  11:57        0.61
  REG_DWF_34           JUNCTION     0.25     0.90    27.04     9  13:37        0.89
  REG_DWF_35A          JUNCTION     0.15     0.60    64.77     9  13:36        0.59
  REG_DWF_35B          JUNCTION     0.08     0.34    32.62     9  13:56        0.33
  REG_DWF_35B_OF2      JUNCTION     0.00     0.00    30.71     0  00:00        0.00
  REG_DWF_39_INT1      JUNCTION     0.20     1.80    15.37     9  13:58        1.78
  REG_DWF_39_INT2      JUNCTION     0.21     2.01    14.86     9  13:59        1.95
  REG_DWF_39_INT3      JUNCTION     0.22     2.03    13.38     9  13:59        1.98
  REG_DWF_39_INT4      JUNCTION     0.46     4.44    12.78     9  13:58        4.38
  REG_DWF_39_OF        JUNCTION     0.00     0.00    13.08     0  00:00        0.00
  REG_GH_INLET         JUNCTION     0.01     2.30    22.72     9  14:03        2.14
  REG_WWF_07           JUNCTION     0.08     0.46    24.94     9  13:58        0.45
  REG_WWF_07_OF1       JUNCTION     0.00     0.05    22.72     9  13:56        0.05
  REG_WWF_07_OF2       JUNCTION     0.00     0.08    11.48     9  13:59        0.08
  REG_WWF_07_OF3       JUNCTION     0.20     4.39    11.09    10  00:04        4.39
  REG_WWF_09           JUNCTION     0.01     0.26    38.93     9  13:58        0.25
  REG_WWF_09_INT1      JUNCTION     0.02     0.22    31.39     9  13:59        0.22
  REG_WWF_09_INT2      JUNCTION     0.10     2.41    15.54     9  14:05        2.41
  REG_WWF_09_OF1       JUNCTION     0.00     0.00    38.67     0  00:00        0.00
  REG_WWF_09_OF2       JUNCTION     0.00     0.00    31.17     0  00:00        0.00
  REG_WWF_10_INT       JUNCTION     0.01     2.91    21.91     9  14:03        2.86
  REG_WWF_11           JUNCTION     0.14    14.93    79.81     9  14:00        4.37
  REG_WWF_11_INT       JUNCTION     0.11     2.61    67.29     9  14:04        2.53
  REG_WWF_11_OF1       JUNCTION     0.01    25.28    84.15     9  14:00        2.76
  REG_WWF_11_OF2       JUNCTION     0.01    22.87    81.54     9  14:00        2.71
  REG_WWF_15           JUNCTION     0.02     4.08    45.25     9  13:57        4.05
  REG_WWF_15_INT       JUNCTION     0.93     1.92    44.95     9  14:27        1.91
  REG_WWF_15_OF1       JUNCTION     0.00     0.00    41.17     0  00:00        0.00
  REG_WWF_15_OF2       JUNCTION     0.01     1.86    39.53     9  14:02        1.81
  REG_WWF_15_OF3       JUNCTION     0.05     7.34    45.26     9  13:55        7.32
  REG_WWF_15_OF4       JUNCTION     0.00     0.00    45.67     0  00:00        0.00
  REG_WWF_15_OF5       JUNCTION     0.00     0.00    50.77     0  00:00        0.00
  REG_WWF_15_OF6       JUNCTION     0.00     0.00    49.24     0  00:00        0.00
  REG_WWF_15_OF7       JUNCTION     0.00     0.00    49.15     0  00:00        0.00
  REG_WWF_16           JUNCTION     0.12     2.97    58.20     9  13:42        2.96
  REG_WWF_16_INT1      JUNCTION     0.11     2.95    58.18     9  13:41        2.95
  REG_WWF_16_OF2       JUNCTION     0.06     0.81    45.71     9  13:43        0.81
  REG_WWF_17           JUNCTION     0.57     1.25    59.37     9  13:59        1.25
  REG_WWF_17_INT1      JUNCTION     0.38     0.71    58.83     9  13:59        0.71
  REG_WWF_17_OF2       JUNCTION     0.00     0.56    48.26     9  12:10        0.56
  REG_WWF_17_OF3       JUNCTION     0.00     0.00    59.27     0  00:00        0.00
  REG_WWF_18           JUNCTION     0.11     2.15    61.70     9  11:58        2.13
  REG_WWF_18_INT       JUNCTION     0.10     2.12    61.67     9  11:58        2.11
  REG_WWF_18_OF2       JUNCTION     0.00     0.55    52.22     9  12:02        0.54
  REG_WWF_18_OF3       JUNCTION     0.00     0.00    59.40     0  00:00        0.00
  REG_WWF_19_INT       JUNCTION     0.00     0.41    59.41     9  13:09        0.41
  REG_WWF_19_OF        JUNCTION     0.00     0.00    66.00     0  00:00        0.00
  REG_WWF_20           JUNCTION     0.02     2.17    83.34     9  13:00        2.17
  REG_WWF_20_INT1      JUNCTION     0.02     1.91    83.08     9  13:00        1.91
  REG_WWF_20_INT3      JUNCTION     0.01     0.88    71.05     9  13:01        0.88
  REG_WWF_20_OF1       JUNCTION     0.00     0.00    89.67     0  00:00        0.00
  RETENTION_TUNNEL     JUNCTION     0.06     4.75    17.78     9  15:37        4.75
  ROCKETTSLANDING      JUNCTION     0.37     0.40     5.54     9  21:00        0.39
  SHOCKOECLEAN_11      JUNCTION     0.85     1.27    54.52     9  16:53        1.27
  SHOCKOECLEAN_12      JUNCTION     0.64     1.06    54.52     9  16:53        1.06
  SHOCKOECLEAN_13      JUNCTION     0.33     0.76    54.53     9  16:52        0.76
  SHOCKOECLEAN_14      JUNCTION     0.12     0.57    54.55     9  16:48        0.57
  SHOCKOECLEAN_15      JUNCTION     0.02     0.47    54.66     9  16:30        0.47
  SHOCKOECLEAN_16      JUNCTION     0.01     0.41    54.81     9  16:13        0.41
  SHOCKOECLEAN_17      JUNCTION     0.01     0.38    54.98     9  16:03        0.38
  SHOCKOECLEAN_18      JUNCTION     0.01     0.37    55.19     9  15:54        0.37
  SHOCKOECLEAN_19      JUNCTION     0.01     0.37    55.40     9  15:46        0.37
  SHOCKOECLEAN_20      JUNCTION     0.03     0.71    55.95     9  15:42        0.71
  SHOCKOECLEAN_21      JUNCTION     0.01     0.53    55.98     9  15:40        0.53
  SHOCKOECLEAN_22      JUNCTION     0.01     0.41    56.07     9  15:31        0.41
  SHOCKOECLEAN_23      JUNCTION     0.01     0.39    56.26     9  15:05        0.39
  SHOCKOECLEAN_24      JUNCTION     0.01     0.39    56.47     9  14:58        0.39
  SHOCKOECLEAN_25      JUNCTION     0.01     0.39    56.68     9  14:50        0.39
  SHOCKOECLEAN_26      JUNCTION     0.05     1.01    57.52     9  14:46        1.01
  SHOCKOECLEAN_27      JUNCTION     0.02     0.81    57.53     9  14:46        0.81
  SHOCKOECLEAN_28      JUNCTION     0.01     0.62    57.55     9  14:45        0.62
  SHOCKOECLEAN_29      JUNCTION     0.01     0.45    57.59     9  14:35        0.45
  SHOCKOECLEAN_30      JUNCTION     0.01     0.43    57.78     9  13:45        0.43
  SHOCKOE_MH1          JUNCTION     0.22     0.65    30.48     9  13:55        0.65
  SHOCKOE_MH2          JUNCTION     0.19     0.55    18.12     9  13:55        0.54
  SHOCKOE_MH3          JUNCTION     0.45     4.22    11.24    10  00:14        4.11
  SWR000042341         JUNCTION     0.00     0.50   139.07     9  13:07        0.50
  SWR00010461          JUNCTION     3.81     9.81    -0.41     9  15:08        9.74
  SWR00013054          JUNCTION     0.07     0.29    18.96     9  13:38        0.29
  SWR00013060          JUNCTION     0.08     0.34    12.16     9  13:38        0.34
  SWR00013092          JUNCTION     0.15     0.61    59.92     9  13:37        0.59
  SWR00013098          JUNCTION     0.15     0.57    56.03     9  13:37        0.56
  SWR00013107          JUNCTION     0.12     0.49    51.06     9  13:38        0.49
  SWR00013119          JUNCTION     0.00     0.00    80.43     0  00:00        0.00
  SWR00013122          JUNCTION     0.18     0.70    42.15     9  13:37        0.69
  SWR00013132          JUNCTION     0.00     0.00    67.92     0  00:00        0.00
  SWR00013133          JUNCTION     0.00     0.00    65.22     0  00:00        0.00
  SWR00013141          JUNCTION     0.00     0.00    47.78     0  00:00        0.00
  SWR00013147          JUNCTION     0.18     0.69    33.66     9  13:38        0.68
  SWR00013156          JUNCTION     0.00     0.00    38.28     0  00:00        0.00
  SWR00013159          JUNCTION     0.00     0.00    29.23     0  00:00        0.00
  SWR00013163          JUNCTION     0.19     0.53    28.17     9  13:35        0.53
  SWR00013183          JUNCTION     0.00     0.00     1.92     0  00:00        0.00
  SWR00013197          JUNCTION     0.35     5.65     7.99    10  17:15        5.64
  SWR00013198          JUNCTION     0.51     5.47     7.99    10  17:17        5.46
  SWR00014946          JUNCTION     0.32     2.86    11.43     9  14:12        2.85
  SWR00014947          JUNCTION     0.36     3.87    11.36     9  14:11        3.79
  SWR00014953          JUNCTION     0.11     0.12     1.05     9  14:27        0.12
  SWR00015053          JUNCTION     0.00     0.00     1.90     0  00:00        0.00
  SWR00015216          JUNCTION     4.42     9.03    -0.25     9  15:14        8.87
  SWR00015243          JUNCTION     0.06     0.37    25.89     9  13:58        0.36
  SWR00015308          JUNCTION     0.53     7.43     7.99    10  17:14        7.43
  SWR00015348          JUNCTION     0.00     0.00     3.07     0  00:00        0.00
  SWR00015366          JUNCTION     2.14     2.38    20.17     9  13:55        2.38
  SWR00015401          JUNCTION     0.24     0.26     3.46     9  14:40        0.26
  SWR00015402          JUNCTION     0.21     0.23     2.21     9  14:42        0.23
  SWR00015407          JUNCTION     0.36     5.82     7.99    10  17:15        5.82
  SWR00015416          JUNCTION     2.14    12.42    11.09     9  23:48       12.40
  SWR00017505          JUNCTION     0.24     0.34   131.00    10  11:35        0.34
  SWR00017507          JUNCTION     0.25     0.35   135.15    10  11:35        0.35
  SWR00017509          JUNCTION     0.26     0.37   137.24    10  11:35        0.37
  SWR00017510          JUNCTION     0.18     0.25   138.73    10  11:33        0.25
  SWR00039710          JUNCTION     0.07     0.63   149.87    22  19:56        0.60
  SWR00039714          JUNCTION     0.04     0.61   176.58    22  19:59        0.61
  SWR00039723          JUNCTION     0.00     0.00   157.57     0  00:00        0.00
  SWR00039854          JUNCTION     0.00     0.00   173.70     0  00:00        0.00
  SWR00039950          JUNCTION     0.02     0.34   170.54     9  11:59        0.34
  SWR00039951          JUNCTION     0.04     0.63   172.28     9  11:58        0.62
  SWR00042074          JUNCTION     0.02     0.34   160.54     9  11:59        0.34
  SWR00042293          JUNCTION     0.21     2.00   143.73     9  13:11        2.00
  SWR00042295          JUNCTION     0.21     2.02   144.14     9  13:10        2.02
  SWR00042301          JUNCTION     0.19     1.99   144.44     9  13:09        1.99
  SWR00042302          JUNCTION     0.19     1.99   144.93     9  13:08        1.99
  SWR00042303          JUNCTION     0.19     2.04   145.39     9  13:07        2.03
  SWR00042304          JUNCTION     0.19     2.05   145.78     9  13:05        2.05
  SWR00042305          JUNCTION     0.19     2.07   146.19     9  13:04        2.07
  SWR00042326          JUNCTION     0.19     2.06   146.48     9  13:03        2.06
  SWR00042328          JUNCTION     0.06     1.08   146.57     9  13:03        1.07
  SWR00042329          JUNCTION     0.06     0.85   146.60     9  13:01        0.84
  SWR00042330          JUNCTION     0.03     0.32   162.59    22  20:01        0.32
  SWR00042331          JUNCTION     0.03     0.32   173.49    22  20:01        0.32
  SWR00042332          JUNCTION     0.05     0.62   175.23    22  20:00        0.62
  SWR00042336          JUNCTION     0.05     0.57   173.21     9  13:08        0.57
  SWR00042338          JUNCTION     0.02     0.36   170.16     9  13:09        0.36
  SWR00042342          JUNCTION     0.00     0.53   123.60     9  13:08        0.52
  SWR00042421          JUNCTION     0.01     0.49   149.96     9  12:59        0.49
  SWR00042421A         JUNCTION     0.01     0.56   150.57     9  12:59        0.56
  SWR00042421C         JUNCTION     0.01     0.53   152.59     9  12:58        0.52
  SWR00042421D         JUNCTION     0.01     0.68   153.39     9  12:57        0.67
  SWR00042421E         JUNCTION     0.01     0.55   155.07     9  12:56        0.55
  SWR00042421F         JUNCTION     0.01     0.61   157.88     9  12:55        0.61
  SWR00042445          JUNCTION     0.05     0.61   151.38     9  12:58        0.60
  SWR00248833          JUNCTION     0.05     0.59   181.62     9  13:00        0.59
  SWR00248911          JUNCTION     0.12     1.02   175.67     9  13:06        1.02
  SWR00248912          JUNCTION     0.05     0.64   174.93     9  13:07        0.64
  SWR00251584          JUNCTION     0.07     0.85   176.51     9  13:04        0.85
  SWR00251585          JUNCTION     0.10     1.00   176.93     9  13:02        1.00
  SWR00251640          JUNCTION     0.06     0.71   178.61     9  13:01        0.70
  SWR00260512          JUNCTION     0.05     0.57   193.65     9  12:57        0.56
  SWR00260512A         JUNCTION     0.70     1.19   197.13     9  12:57        1.19
  SWR00260575          JUNCTION     0.06     0.61   189.48     9  12:58        0.61
  SWR00260576          JUNCTION     0.05     0.54   186.34     9  12:59        0.54
  SWR00260577          JUNCTION     0.05     0.55   182.08     9  12:59        0.55
  SWR00264398          JUNCTION     0.00     0.00   198.33     0  00:00        0.00
  SWR00264411          JUNCTION     0.00     0.00   200.45     0  00:00        0.00
  SWR00264834          JUNCTION     0.00     0.00   202.75     0  00:00        0.00
  SWR00270222          JUNCTION     0.00     0.00   188.72     0  00:00        0.00
  SWR00270223          JUNCTION     0.00     0.00   192.01     0  00:00        0.00
  SWR00270224          JUNCTION     0.00     0.00   195.12     0  00:00        0.00
  SWR00270692          JUNCTION     0.02     0.47   177.50     9  11:55        0.46
  SWR00292579          JUNCTION     0.23     1.93   142.48     9  13:14        1.93
  SWR00292599          JUNCTION     0.00     0.00   121.52     0  00:00        0.00
  SWR00292600          JUNCTION     0.00     0.00   109.47     0  00:00        0.00
  SWR00292601          JUNCTION     0.00     0.00   117.56     0  00:00        0.00
  SWR00292615          JUNCTION     0.00     0.00   135.60     0  00:00        0.00
  SWR00292615M         JUNCTION     0.00     0.00   137.19     0  00:00        0.00
  SWR00292620          JUNCTION     0.09     0.63   125.20     9  13:18        0.63
  SWR00292621          JUNCTION     0.13     0.97   110.15     9  13:18        0.97
  SWR00292627          JUNCTION     0.14     1.03   109.64     9  13:19        1.03
  SWR00292629          JUNCTION     0.08     0.60   134.36     9  13:17        0.59
  SWR00292687          JUNCTION     0.39     1.94   140.18     9  13:17        1.94
  SWR00292689          JUNCTION     0.25     1.74   141.05     9  13:16        1.74
  SWR00292690          JUNCTION     0.21     1.94   141.94     9  13:15        1.94
  SWR00292692          JUNCTION     0.23     1.92   142.17     9  13:15        1.92
  SWR00292715          JUNCTION     0.21     1.95   142.89     9  13:13        1.95
  SWR00292740          JUNCTION     0.00     0.00   146.37     0  00:00        0.00
  SWR00292742          JUNCTION     0.00     0.00   151.70     0  00:00        0.00
  SWR00292745          JUNCTION     0.00     0.00   159.56     0  00:00        0.00
  SWR00292811          JUNCTION     0.21     1.97   143.32     9  13:12        1.96
  SWR00294299          JUNCTION     0.00     0.00    84.13     0  00:00        0.00
  SWR00294402          JUNCTION     0.07     0.55   106.02     9  13:19        0.55
  SWR00294404          JUNCTION     0.09     0.64    76.57     9  13:20        0.64
  SWR00294406          JUNCTION     0.03     0.34    71.51     9  13:59        0.34
  SWR00294407          JUNCTION     0.05     0.59    73.59     9  13:58        0.59
  SWR00294408          JUNCTION     0.03     0.42    77.61     9  13:58        0.41
  SWR00294409          JUNCTION     0.03     0.41    86.39     9  13:57        0.41
  SWR00294410          JUNCTION     0.03     0.39    81.93     9  13:58        0.38
  SWR00294412          JUNCTION     0.03     0.40    92.92     9  13:57        0.39
  SWR00294413          JUNCTION     0.03     0.42   100.61     9  13:57        0.42
  SWR00294420          JUNCTION     0.03     0.42   103.55     9  13:56        0.41
  SWR00296412          JUNCTION     0.00     0.00   165.04     0  00:00        0.00
  SWR00296426          JUNCTION     0.00     0.00   169.02     0  00:00        0.00
  SWR00296434          JUNCTION     0.00     0.00   158.37     0  00:00        0.00
  SWR00296437          JUNCTION     0.00     0.00   159.44     0  00:00        0.00
  SWR00296485          JUNCTION     0.00     0.00   151.50     0  00:00        0.00
  SWR00296559          JUNCTION     0.00     0.00   148.77     0  00:00        0.00
  SWR00296622          JUNCTION     0.00     0.00   145.36     0  00:00        0.00
  SWR00296625          JUNCTION     0.00     0.00   142.70     0  00:00        0.00
  SWR00296630          JUNCTION     0.02     0.26   141.95     9  13:55        0.26
  SWR00296631          JUNCTION     0.02     0.33   140.90     9  13:55        0.32
  SWR00296633          JUNCTION     0.03     0.41   117.23     9  13:56        0.40
  SWR00296634          JUNCTION     0.03     0.44   109.85     9  13:56        0.44
  SWR00299723          JUNCTION     0.00     0.00   171.56     0  00:00        0.00
  SWR00299864          JUNCTION     0.00     0.00   176.58     0  00:00        0.00
  SWR00299866          JUNCTION     0.00     0.00   184.52     0  00:00        0.00
  SWR00299868          JUNCTION     0.00     0.00   190.41     0  00:00        0.00
  SWR00299871          JUNCTION     0.00     0.00   192.81     0  00:00        0.00
  SWR00299872          JUNCTION     0.00     0.00   193.88     0  00:00        0.00
  SWR00299875          JUNCTION     0.00     0.00   195.41     0  00:00        0.00
  SWR00299876          JUNCTION     0.00     0.00   196.97     0  00:00        0.00
  SWR00299889          JUNCTION     0.00     0.00   200.02     0  00:00        0.00
  SWR00299890          JUNCTION     0.00     0.00   200.70     0  00:00        0.00
  SWR00299891          JUNCTION     0.00     0.00   203.36     0  00:00        0.00
  SWR00299909          JUNCTION     0.00     0.00   180.85     0  00:00        0.00
  SWR00309902          JUNCTION     0.49     0.87   174.58     9  13:05        0.87
  SWR00309911          JUNCTION     0.04     0.23   161.40     9  13:06        0.23
  SWR00310034          JUNCTION     0.10     0.51   172.58     9  13:05        0.50
  SWR00310038          JUNCTION     0.00     0.00   175.26     0  00:00        0.00
  SWR00310040          JUNCTION     0.00     0.00   181.96     0  00:00        0.00
  SWR00310179          JUNCTION     0.07     0.37   172.24     9  13:05        0.37
  SWR00310281          JUNCTION     0.00     0.00   185.22     0  00:00        0.00
  SWR00310286          JUNCTION     0.00     0.00   186.44     0  00:00        0.00
  SWR00310287          JUNCTION     0.00     0.00   185.70     0  00:00        0.00
  SWR00311490          JUNCTION     0.17     0.74   117.02     9  13:11        0.74
  SWR00311491          JUNCTION     0.10     0.43   127.83     9  13:13        0.43
  SWR00311492          JUNCTION     0.13     0.53   129.82     9  13:11        0.53
  SWR00311498          JUNCTION     0.21     0.81   124.88     9  12:55        0.81
  SWR00311498_B        JUNCTION     0.16     0.68   121.68     9  13:10        0.68
  SWR00311499          JUNCTION     0.20     0.79   130.66     9  12:55        0.79
  SWR00311520          JUNCTION     0.76     1.71   131.00     9  13:11        1.71
  SWR00311524          JUNCTION     0.22     0.92   142.53     9  13:10        0.91
  SWR00311525          JUNCTION     0.18     0.76   139.83     9  13:10        0.76
  SWR00311531          JUNCTION     0.22     0.91   145.27     9  13:10        0.91
  SWR00311544          JUNCTION     0.22     0.91   147.64     9  13:09        0.91
  SWR00311547          JUNCTION     0.23     0.95   151.45     9  13:08        0.95
  SWR00311548          JUNCTION     0.22     0.91   148.85     9  13:09        0.91
  SWR00313043          JUNCTION     0.12     0.24   116.25     9  12:48        0.24
  SWR00313044          JUNCTION     0.27     1.12    55.70     9  13:16        1.09
  SWR00313053          JUNCTION     0.00     0.00    79.12     0  00:00        0.00
  SWR00313089          JUNCTION     0.27     1.17    58.29     9  13:14        1.16
  SWR00313089B         JUNCTION     0.28     1.15    57.80     9  13:15        1.13
  SWR00313091          JUNCTION     0.28     1.14    60.47     9  13:18        1.12
  SWR00313093          JUNCTION     0.31     1.24    62.60     9  13:17        1.22
  SWR00313095          JUNCTION     0.27     1.17    63.13     9  13:12        1.13
  SWR00313097          JUNCTION     0.27     1.11    64.67     9  13:15        1.11
  SWR00313099          JUNCTION     0.28     1.13    66.43     9  13:15        1.13
  SWR00313100          JUNCTION     0.29     1.16    67.90     9  13:15        1.16
  SWR00313102          JUNCTION     0.28     1.14    70.24     9  13:15        1.14
  SWR00313104          JUNCTION     0.28     1.13    73.02     9  13:14        1.13
  SWR00313111          JUNCTION     0.29     1.17    75.26     9  13:14        1.16
  SWR00313112          JUNCTION     0.23     0.98    76.46     9  13:17        0.98
  SWR00313113          JUNCTION     0.20     0.84    80.48     9  13:16        0.83
  SWR00313172          JUNCTION     0.00     0.00    75.79     0  00:00        0.00
  SWR00313210          JUNCTION     0.22     0.93    77.76     9  13:16        0.93
  SWR00313215          JUNCTION     0.00     0.00    80.96     0  00:00        0.00
  SWR00313217          JUNCTION     0.00     0.00    97.29     0  00:00        0.00
  SWR00313244          JUNCTION     0.00     0.00   100.76     0  00:00        0.00
  SWR00313247          JUNCTION     0.00     0.00   127.87     0  00:00        0.00
  SWR00313333          JUNCTION     0.08     0.21   121.12     9  12:47        0.21
  SWR00313390          JUNCTION     0.00     0.00    75.06     0  00:00        0.00
  SWR00313392          JUNCTION     0.00     0.00    80.93     0  00:00        0.00
  SWR00314514          JUNCTION     0.00     0.00   118.47     0  00:00        0.00
  SWR00315790          JUNCTION     0.22     0.66    76.45     9  12:47        0.66
  SWR00316152          JUNCTION     0.24     0.72    65.54     9  12:49        0.72
  SWR00316274          JUNCTION     0.22     0.64    81.48     9  12:46        0.64
  SWR00316277          JUNCTION     0.04     0.13    99.82    22  20:00        0.13
  SWR00316278          JUNCTION     0.00     0.00   117.70     0  00:00        0.00
  SWR00316897          JUNCTION     0.00     0.00   108.53     0  00:00        0.00
  SWR00316898          JUNCTION     0.00     0.00   105.40     0  00:00        0.00
  SWR00316899          JUNCTION     0.00     0.00   104.47     0  00:00        0.00
  SWR00317007          JUNCTION     0.18     0.80    86.97     9  13:15        0.80
  SWR00317008          JUNCTION     0.18     0.79    90.36     9  13:15        0.79
  SWR00317010          JUNCTION     0.19     0.82    93.93     9  13:14        0.82
  SWR00317011          JUNCTION     0.20     0.84   114.01     9  13:11        0.84
  SWR00317012          JUNCTION     0.18     0.79   111.15     9  13:12        0.79
  SWR00317013          JUNCTION     0.18     0.79    96.67     9  13:14        0.79
  SWR00317014          JUNCTION     0.20     0.87    99.18     9  13:13        0.87
  SWR00317016          JUNCTION     0.19     0.80   102.93     9  13:12        0.80
  SWR00317016M         JUNCTION     0.19     0.80   101.34     9  13:13        0.80
  SWR00317034          JUNCTION     0.00     0.00   114.53     0  00:00        0.00
  SWR00317039          JUNCTION     0.00     0.00   114.12     0  00:00        0.00
  SWR00317117          JUNCTION     0.20     0.84    83.27     9  13:15        0.84
  SWR00318375          JUNCTION     0.20     0.87   107.97     9  13:12        0.87
  SWR00318720          JUNCTION     0.00     0.00   254.06     0  00:00        0.00
  SWR00319682          JUNCTION     0.00     0.00   243.08     0  00:00        0.00
  SWR00319762          JUNCTION     0.00     0.00   254.20     0  00:00        0.00
  SWR00319797          JUNCTION     0.00     0.00   261.98     0  00:00        0.00
  SWR00319805          JUNCTION     0.00     0.00   250.05     0  00:00        0.00
  SWR00319885          JUNCTION     0.00     0.00   270.34     0  00:00        0.00
  SWR00319887          JUNCTION     0.00     0.00   267.00     0  00:00        0.00
  SWR00319909          JUNCTION     0.00     0.00   245.44     0  00:00        0.00
  SWR00319961          JUNCTION     0.00     0.00   239.80     0  00:00        0.00
  SWR00319965          JUNCTION     0.00     0.00   239.61     0  00:00        0.00
  SWR00320711          JUNCTION     0.00     0.00   280.24     0  00:00        0.00
  SWR00320715          JUNCTION     0.00     0.00   288.06     0  00:00        0.00
  SWR00320807          JUNCTION     0.00     0.00   273.03     0  00:00        0.00
  SWR00320921          JUNCTION     0.00     0.00     4.84     0  00:00        0.00
  SWR00322144          JUNCTION     0.05     0.38    41.55     9  13:55        0.37
  SWR00322147          JUNCTION     0.00     0.00     4.27     0  00:00        0.00
  SWR00322511M         JUNCTION     1.22     9.84    11.11     9  23:48        9.82
  SWR00322512          JUNCTION     1.07     9.04    11.11    10  00:07        9.03
  SWR00322514          JUNCTION     0.00     0.00     4.49     0  00:00        0.00
  SWR00322888          JUNCTION     0.05     0.37    51.74     9  13:55        0.37
  SWR00322889          JUNCTION     0.05     0.39    47.26     9  13:55        0.39
  SWR00322894          JUNCTION     0.06     0.37    28.37     9  13:57        0.36
  SWR00323146          JUNCTION     0.14     1.09    53.73     9  13:57        1.09
  SWR00323162          JUNCTION     0.01     0.15    87.52     9  13:35        0.15
  SWR00323863          JUNCTION     0.00     0.00    88.82     0  00:00        0.00
  SWR00323992A         JUNCTION     0.08     0.63    43.38     9  13:58        0.62
  SWR00323993          JUNCTION     0.07     0.57    60.74     9  13:57        0.57
  SWR00323995          JUNCTION     0.87     1.33    80.44     9  13:56        1.32
  SWR00323996          JUNCTION     0.04     0.52    76.33     9  13:56        0.51
  SWR00323997          JUNCTION     0.86     1.23    70.42     9  13:57        1.22
  SWR00323998          JUNCTION     0.87     1.35    72.24     9  13:57        1.34
  SWR00324008          JUNCTION     0.03     0.33    42.13     9  13:59        0.33
  SWR00324011          JUNCTION     0.03     0.23    52.22     9  13:59        0.23
  SWR00324054          JUNCTION     0.00     0.00    75.20     0  00:00        0.00
  SWR00324054B         JUNCTION     0.05     0.60    74.60     9  13:56        0.59
  SWR00324057          JUNCTION     0.00     0.00    79.95     0  00:00        0.00
  SWR00324059          JUNCTION     0.00     0.00    83.61     0  00:00        0.00
  SWR00324075          JUNCTION     0.07     0.53    69.20     9  13:56        0.52
  SWR00324080          JUNCTION     0.02     0.35    63.27     9  13:57        0.34
  SWR00324180          JUNCTION     0.16     1.08    83.35     9  13:55        1.08
  SWR00324181          JUNCTION     0.04     0.35    83.75     9  13:36        0.35
  SWR00324183          JUNCTION     0.05     0.42    87.42     9  13:35        0.42
  SWR00324194          JUNCTION     0.91     1.39    59.90     9  13:56        1.38
  SWR00324195          JUNCTION     0.89     1.25    70.82     9  13:55        1.25
  SWR00325789          JUNCTION     0.06     0.35   121.01     9  13:36        0.35
  SWR00326305          JUNCTION     0.00     0.00    50.05     0  00:00        0.00
  SWR00326306          JUNCTION     0.00     0.00    55.90     0  00:00        0.00
  SWR00326346          JUNCTION     0.00     0.00    56.13     0  00:00        0.00
  SWR00326349          JUNCTION     0.00     0.00    72.89     0  00:00        0.00
  SWR00326350          JUNCTION     0.00     0.00    93.11     0  00:00        0.00
  SWR00326376          JUNCTION     0.21     0.27    63.74     9  14:45        0.27
  SWR00327302          JUNCTION     0.49     5.58    74.22     9  13:57        5.51
  SWR00327303          JUNCTION     0.11     1.49    74.16     9  13:56        1.43
  SWR00327524          JUNCTION     0.07     0.49    82.49     9  13:55        0.49
  SWR00328980          JUNCTION     0.00     0.00    74.19     0  00:00        0.00
  SWR00328981          JUNCTION     0.00     0.00    69.62     0  00:00        0.00
  SWR00328982          JUNCTION     0.17     0.49    61.58     9  13:56        0.48
  SWR00328984          JUNCTION     0.00     0.00    30.05     0  00:00        0.00
  SWR00328986          JUNCTION     0.00     0.00    34.11     0  00:00        0.00
  SWR00328987          JUNCTION     0.00     0.00    31.37     0  00:00        0.00
  SWR00328988          JUNCTION     0.00     0.00    31.59     0  00:00        0.00
  SWR00328989          JUNCTION     0.32     0.98    27.15     9  13:42        0.97
  SWR00328993          JUNCTION     0.00     0.00    34.05     0  00:00        0.00
  SWR00328995          JUNCTION     0.13     0.37    38.54     9  14:00        0.37
  SWR00328996          JUNCTION     0.15     0.43    41.33     9  13:59        0.43
  SWR00329001          JUNCTION     0.00     0.00    44.17     0  00:00        0.00
  SWR00329002          JUNCTION     0.15     0.42    44.09     9  13:59        0.42
  SWR00329003          JUNCTION     0.14     0.39    46.25     9  13:58        0.39
  SWR00329004          JUNCTION     0.14     0.38    49.56     9  13:58        0.38
  SWR00329005          JUNCTION     0.15     0.43    51.16     9  13:57        0.42
  SWR00329006          JUNCTION     0.17     0.49    59.71     9  13:57        0.48
  SWR00329007          JUNCTION     0.07     0.20    59.22     9  13:57        0.19
  SWR00329009          JUNCTION     0.00     0.00    55.17     0  00:00        0.00
  SWR00329010          JUNCTION     0.00     0.00    35.63     0  00:00        0.00
  SWR00329032          JUNCTION     0.00     0.00    36.42     0  00:00        0.00
  SWR00329051          JUNCTION     0.04     0.19   119.46     9  13:35        0.19
  SWR00329066          JUNCTION     0.04     0.22   102.80     9  13:35        0.22
  SWR00329067          JUNCTION     0.00     0.00   107.11     0  00:00        0.00
  SWR00329068          JUNCTION     0.00     0.00   111.50     0  00:00        0.00
  SWR00329069          JUNCTION     0.06     0.32    74.51     9  13:35        0.31
  SWR00329070          JUNCTION     0.04     0.23    73.47     9  13:36        0.23
  SWR00339495          JUNCTION     0.11     0.38    39.36     9  14:01        0.38
  SWR00339635          JUNCTION     0.10     0.35    54.70     9  14:00        0.35
  SWR00339645          JUNCTION     0.10     0.36    69.53     9  14:00        0.36
  SWR00339749          JUNCTION     0.10     0.36    71.83     9  13:59        0.36
  SWR00339753          JUNCTION     0.07     0.33    76.93     9  13:59        0.32
  SWR00339758          JUNCTION     0.05     0.24   116.71     9  13:58        0.24
  SWR00339759          JUNCTION     0.09     0.38   126.42     9  13:58        0.38
  SWR00339760          JUNCTION     0.11     0.48   129.45     9  13:57        0.48
  SWR00339765          JUNCTION     0.09     0.39   130.21     9  13:57        0.38
  SWR00339767          JUNCTION     0.13     0.56   131.64     9  13:56        0.55
  SWR00339768          JUNCTION     0.11     0.48   134.00     9  13:55        0.47
  SWR00339771          JUNCTION     0.10     0.46   134.75     9  13:55        0.46
  SWR00339788          JUNCTION     0.00     0.00   139.57     0  00:00        0.00
  SWR00339923          JUNCTION     0.36     1.21    60.48     9  13:27        1.21
  SWR00339926          JUNCTION     0.28     0.99    59.61     9  13:28        0.99
  SWR00339928          JUNCTION     0.31     1.00    58.77     9  13:29        1.00
  SWR00339932          JUNCTION     0.19     0.65    51.74     9  13:30        0.65
  SWR00339933          JUNCTION     0.17     0.59    45.56     9  13:31        0.59
  SWR00339939          JUNCTION     0.19     0.64    57.61     9  13:30        0.64
  SWR00339965          JUNCTION     0.12     0.38    68.49     9  13:21        0.38
  SWR00339967          JUNCTION     0.28     0.97    62.93     9  13:22        0.97
  SWR00339969          JUNCTION     0.25     1.14    62.64     9  13:23        1.14
  SWR00339971          JUNCTION     0.42     1.31    62.66     9  13:23        1.31
  SWR00339973          JUNCTION     0.31     1.06    62.27     9  13:24        1.06
  SWR00339974          JUNCTION     0.28     1.00    61.58     9  13:25        1.00
  SWR00339976          JUNCTION     0.31     1.08    60.95     9  13:26        1.08
  SWR00342774          JUNCTION     0.05     0.09   134.62     9  14:40        0.09
  SWR00342776          JUNCTION     0.06     0.10   133.13     9  14:45        0.10
  SWR00343016          JUNCTION     0.11     0.40   129.23     9  13:35        0.40
  SWR00343149          JUNCTION     0.03     0.06   132.43     9  14:45        0.06
  SWR00343186          JUNCTION     0.10     0.38   123.47     9  13:36        0.37
  SWR00346913          JUNCTION     0.00     0.00   142.37     0  00:00        0.00
  SWR00346916          JUNCTION     0.14     0.49   131.36     9  13:38        0.49
  SWR00346918          JUNCTION     0.14     0.49   135.46     9  13:37        0.48
  SWR00346943          JUNCTION     0.00     0.00   143.43     0  00:00        0.00
  SWR00346972          JUNCTION     0.09     0.32   138.86     9  13:36        0.32
  SWR00346973          JUNCTION     0.17     0.59   140.98     9  13:36        0.59
  SWR00346974          JUNCTION     0.16     0.56   143.93     9  13:35        0.55
  SWR00347549          JUNCTION     0.11     0.42   132.79    22  20:01        0.41
  SWR00347552          JUNCTION     0.11     0.40   127.04     9  13:39        0.40
  SWR00347558          JUNCTION     0.11     0.44   126.72     9  12:41        0.43
  SWR00347568          JUNCTION     0.20     0.66    72.18     9  13:20        0.66
  SWR00347569          JUNCTION     0.16     0.53    79.80     9  13:20        0.53
  SWR00347570          JUNCTION     0.50     1.39    83.56     9  13:20        1.39
  SWR00347571          JUNCTION     0.19     0.65    86.92     9  13:19        0.65
  SWR00347572          JUNCTION     0.13     0.43    96.78     9  13:18        0.43
  SWR00347573          JUNCTION     0.18     0.60   102.86     9  13:18        0.60
  SWR00347574          JUNCTION     0.53     1.17   103.43     9  13:18        1.17
  SWR00347575          JUNCTION     0.59     1.57   103.83     9  13:17        1.57
  SWR00347576          JUNCTION     0.19     0.64   108.21     9  13:16        0.64
  SWR00347577          JUNCTION     0.17     0.58   118.31     9  13:16        0.58
  SWR00347578          JUNCTION     0.17     0.56   118.75     9  13:11        0.56
  SWR00347628          JUNCTION     0.00     0.00   136.77     0  00:00        0.00
  SWR00347632          JUNCTION     0.00     0.00   140.22     0  00:00        0.00
  SWR00347633          JUNCTION     0.00     0.00   140.63     0  00:00        0.00
  SWR00348086          JUNCTION     0.06     0.35   133.52     9  13:35        0.35
  SWR00348099          JUNCTION     0.22     0.73    28.31     9  13:31        0.73
  SWR00348282          JUNCTION     0.00     0.00    21.42     0  00:00        0.00
  SWR00349420          JUNCTION     0.00     0.00    34.53     0  00:00        0.00
  SWR00349521          JUNCTION     0.82     4.62    12.65     9  13:59        4.55
  SWR00349524          JUNCTION     0.55     4.01    12.18     9  13:58        3.98
  SWR00349526          JUNCTION     1.60     3.18    10.27     9  13:40        3.17
  SWR00349740          JUNCTION     0.51     3.02     7.21     9  14:03        3.02
  SWR00349751          JUNCTION     0.08     1.80    20.42     9  14:07        1.74
  SWR00349754          JUNCTION     0.11     4.18    20.41     9  14:08        4.16
  SWR00349755          JUNCTION     0.12     5.21    20.41     9  14:07        5.20
  SWR00349757          JUNCTION     0.15     5.59    20.43     9  14:06        5.53
  SWR00349760          JUNCTION     0.28     5.63    18.18     9  14:06        5.60
  SWR00349762          JUNCTION     0.29     4.97    16.47     9  14:06        4.94
  SWR00349764          JUNCTION     0.93     2.47    11.70     9  14:14        2.44
  SWR00349767          JUNCTION     0.31     1.33     9.64     9  13:40        1.33
  SWR00349770          JUNCTION     0.53     2.66     9.32     9  14:05        2.66
  SWR00349771          JUNCTION     0.56     2.91     8.31     9  14:06        2.90
  SWR00349774          JUNCTION     0.53     2.81     8.61     9  14:06        2.81
  SWR00349778          JUNCTION     0.55     2.74     9.04     9  14:05        2.73
  SWR00349793          JUNCTION     0.07     0.08    23.17     9  15:01        0.08
  SWR00349798          JUNCTION     0.16     0.65    23.45     9  13:40        0.64
  SWR00349800          JUNCTION     0.29     6.54    20.07     9  14:06        6.51
  SWR00349858          JUNCTION     0.03     0.05    28.08     9  14:40        0.05
  SWR00349880          JUNCTION     0.07     0.37    32.70     9  13:35        0.37
  SWR00349882          JUNCTION     0.00     0.27    32.72     9  13:36        0.25
  SWR00349907          JUNCTION     0.04     0.05    18.26     9  14:45        0.05
  SWR00349909          JUNCTION     0.03     0.05    28.08     9  14:37        0.05
  SWR00349915          JUNCTION     0.00     0.00    28.66     0  00:00        0.00
  SWR00349916          JUNCTION     0.32     0.94    26.99     9  13:43        0.94
  SWR00349921          JUNCTION     0.00     0.00    17.89     0  00:00        0.00
  SWR00349922          JUNCTION     0.00     0.00    19.52     0  00:00        0.00
  SWR00349927          JUNCTION     0.15     0.62    24.00     9  13:44        0.62
  SWR00349928          JUNCTION     0.21     0.96    15.18     9  13:55        0.96
  SWR00349929          JUNCTION     0.21     0.97    13.13     9  13:55        0.97
  SWR00349930          JUNCTION     0.56     3.21     6.60     9  14:03        3.20
  SWR00349936          JUNCTION     0.06     1.11    31.97     9  14:00        1.11
  SWR00349941          JUNCTION     0.00     0.00    54.35     0  00:00        0.00
  SWR00349949          JUNCTION     0.06     0.37    54.57     9  13:37        0.36
  SWR00349953          JUNCTION     0.03     0.16    58.33     9  13:37        0.16
  SWR00349956          JUNCTION     0.03     0.17    75.32     9  13:37        0.17
  SWR00349958          JUNCTION     0.03     0.18    77.09     9  13:36        0.17
  SWR00349960          JUNCTION     0.00     0.00    52.91     0  00:00        0.00
  SWR00349964          JUNCTION     0.00     0.00    66.17     0  00:00        0.00
  SWR00349966          JUNCTION     0.00     0.00    72.89     0  00:00        0.00
  SWR00349969          JUNCTION     0.00     0.00   115.01     0  00:00        0.00
  SWR00349974          JUNCTION     0.03     0.14   112.68     9  13:36        0.13
  SWR00349975          JUNCTION     0.00     0.00   114.21     0  00:00        0.00
  SWR00349978          JUNCTION     0.21     0.90    26.84     9  13:43        0.90
  SWR00349982          JUNCTION     0.14     0.75    28.86     9  13:40        0.75
  SWR00349983          JUNCTION     0.14     0.75    29.60     9  13:39        0.74
  SWR00349985          JUNCTION     0.19     1.24    30.97     9  14:00        1.24
  SWR00349988          JUNCTION     0.19     1.61    31.93     9  14:00        1.60
  SWR00349989          JUNCTION     0.11     1.24    31.97     9  14:00        1.24
  SWR00349991          JUNCTION     0.18     1.01    32.64     9  13:39        1.00
  SWR00349993          JUNCTION     0.16     0.91    33.25     9  13:37        0.89
  SWR00349995          JUNCTION     0.16     0.92    33.70     9  13:37        0.89
  SWR00349997          JUNCTION     0.00     0.00    39.85     0  00:00        0.00
  SWR00349998          JUNCTION     0.16     0.93    33.97     9  13:36        0.90
  SWR00350001          JUNCTION     0.05     0.33    33.97     9  13:37        0.30
  SWR00350003          JUNCTION     0.05     0.27    34.77     9  13:40        0.26
  SWR00350005          JUNCTION     0.05     0.27    35.63     9  13:39        0.27
  SWR00350007          JUNCTION     0.05     0.27    37.36     9  13:38        0.26
  SWR00350008          JUNCTION     0.00     0.00    21.94     0  00:00        0.00
  SWR00350009          JUNCTION     0.00     0.00    26.39     0  00:00        0.00
  SWR00350011          JUNCTION     0.00     0.00    28.01     0  00:00        0.00
  SWR00350014          JUNCTION     0.00     0.00    28.79     0  00:00        0.00
  SWR00350016          JUNCTION     0.00     0.00    31.19     0  00:00        0.00
  SWR00350018          JUNCTION     0.00     0.00    33.33     0  00:00        0.00
  SWR00350020          JUNCTION     0.00     0.00    35.56     0  00:00        0.00
  SWR00350022          JUNCTION     0.00     0.00    37.40     0  00:00        0.00
  SWR00350024          JUNCTION     0.00     0.00    37.84     0  00:00        0.00
[...]
  SWR00688659             1.00   0.00  0.00  0.00  0.00  1.00  0.00  0.00  0.94  0.00
  SWR00688660             2.46   0.00  0.00  0.00  0.00  0.02  0.00  0.98  0.02  0.00
  SWR00688682             1.00   0.00  0.00  0.00  0.01  0.01  0.00  0.99  0.01  0.00
  SWR00692774             4.40   0.00  0.00  0.00  0.00  1.00  0.00  0.00  0.00  0.00
  SWR00693911             5.86   1.00  0.00  0.00  0.00  0.00  0.00  0.00  0.00  0.00
  TO_GC_IN                2.45   0.00  0.00  0.00  1.00  0.00  0.00  0.00  0.00  0.00
  TO_GC_IN2               2.45   0.00  0.00  0.00  1.00  0.00  0.00  0.00  0.00  0.00
  TO_GC_IN3               2.45   0.00  0.00  0.00  1.00  0.00  0.00  0.00  0.00  0.00
  TO_GC_IN4               2.45   0.00  0.00  0.00  0.31  0.69  0.00  0.00  0.34  0.00
  TO-IC                   2.82   0.00  0.00  0.00  1.00  0.00  0.00  0.00  0.00  0.00
  WDS-EDS                11.53   0.00  0.00  0.00  1.00  0.00  0.00  0.00  0.00  0.00
  SHOCKOE_RETENTION_OUTLET   15.90   0.00  0.93  0.00  0.07  0.00  0.00  0.00  0.69  0.00
  WWTP_FLOW_SRBDW_MAX     2.45   0.92  0.00  0.00  0.08  0.00  0.00  0.00  0.00  0.00
  
  
  *************************
  Conduit Surcharge Summary
  *************************
  
  ----------------------------------------------------------------------------
                                                           Hours        Hours 
                         --------- Hours Full --------   Above Full   Capacity
  Conduit                Both Ends  Upstream  Dnstream   Normal Flow   Limited
  ----------------------------------------------------------------------------
  GC_TO_WW                    4.04      4.04      4.96      0.01         0.01
  LG_RELIEF                  13.81     13.81     30.43      0.01         0.01
  MCCLOY_FORCEMAIN           10.18     10.18     10.68     10.18        10.18
  NE-14A                      0.01      0.01      0.01      0.72         0.01
  P17310                      0.01      0.01      9.74      0.01         0.01
  PDES_17                     0.01      0.01      0.01      1.14         0.01
  REG_06C_DWF                 0.01      1.89      0.01      2.43         0.01
  REG_15_DWF                  2.02      2.24      2.02      5.36         1.60
  REG_19A_DWF                 0.01      0.01      0.01      2.52         0.01
  REG_21_DWF2                 1.55      1.55      1.67      0.01         0.01
  REG_DWF_05_INTPIPE          0.01      0.01      2.56      0.01         0.01
  REG_DWF_06B_INTPIPE3        1.08      1.08      2.36      0.01         0.01
  REG_DWF_24_INTPIPE1         1.54      1.60      1.54     59.44         1.54
  REG_DWF_24_INTPIPE2         1.67      1.67      2.00      0.01         0.01
  REG_DWF_24_INTPIPE3         2.00      2.00      2.16      0.01         0.01
  REG_DWF_39_INTPIPE1         0.59      0.59      0.77      0.01         0.01
  REG_DWF_39_INTPIPE2         0.77      0.77      0.90      0.14         0.12
  REG_DWF_39_INTPIPE3         0.90      0.90      0.92      0.89         0.80
  REG_DWF_39_INTPIPE4         1.63      1.63      1.79      0.01         0.01
  SWR00010462                 1.32      1.32      1.91      0.01         0.01
  SWR00013051                 0.01      0.01      4.59      0.01         0.01
  SWR00039716                 0.01      0.01      0.01      0.78         0.01
  SWR00039724                 0.01      0.01    744.00      0.01         0.01
  SWR00042210                 0.01      0.01      0.01      0.08         0.01
  SWR00042294                 0.01      0.01      0.01      0.12         0.01
  SWR00042298                 0.01      0.01      0.01      0.20         0.01
  SWR00042299                 0.01      0.01      0.01      0.16         0.01
  SWR00042300                 0.01      0.01      0.01      0.13         0.01
  SWR00291764                 0.01      0.01      0.01      0.07         0.01
  SWR00292693                 0.01      0.01      0.01      0.23         0.01
  SWR00292812                 0.01      0.01      0.01      0.09         0.01
  SWR00311550                 0.01      0.01      0.01      3.71         0.01
  SWR00327301                 0.01      0.01      0.78      0.01         0.01
  SWR00347584                 0.01      0.01      0.01     33.58         0.01
  SWR00347585                 0.01      0.01      0.01     23.00         0.01
  SWR00347589                 0.01      0.01      0.01      1.40         0.01
  SWR00348103                 0.01      0.01      0.01      0.27         0.01
  SWR00348123                 0.87      0.87      1.98      0.01         0.01
  SWR00349522                 1.59      1.59      1.79      1.92         0.01
  SWR00349523                 1.59      1.59      2.12      1.35         1.35
  SWR00349525                 0.01      0.01      1.10      0.01         0.01
  SWR00349660                 0.01      0.01      0.01      0.31         0.01
  SWR00349741                 0.18      0.18      0.59      0.01         0.01
  SWR00349742                 0.01      0.01      0.18      0.13         0.01
  SWR00349752                 0.01      0.01      0.56      0.01         0.01
  SWR00349753                 0.56      0.56      1.68      0.01         0.01
  SWR00349756                 1.68      1.68      1.88      0.01         0.01
  SWR00349758                 1.88      1.88      1.94      0.01         0.01
  SWR00349759                 1.94      1.94      2.00      0.01         0.01
  SWR00349761                 2.20      2.20      2.21      2.03         2.03
  SWR00349763                 2.21      2.21      2.26      1.83         1.83
  SWR00349765                 2.26      2.26      7.46      2.16         2.15
  SWR00349766                 0.01      0.01      7.46      1.63         0.01
  SWR00349773                 0.01      0.01      0.01      0.43         0.01
  SWR00349918                 0.01      0.01      0.01      0.19         0.01
  SWR00349981                 0.01      0.01      0.01      1.10         0.01
  SWR00349984                 0.01      0.83      0.01      1.17         0.01
  SWR00349986                 0.01      0.01      0.83      0.01         0.01
  SWR00352689                 0.01      0.01      0.82      0.01         0.01
  SWR00352706                 1.00      1.00      1.20      0.01         0.01
  SWR00352707                 0.84      0.84      1.00      0.01         0.01
  SWR00352708                 1.19      1.19      1.25      0.01         0.01
  SWR00352711                 1.19      1.20      1.19      1.53         1.07
  SWR00352714                 1.25      1.25      1.63      0.01         0.01
  SWR00353283                 0.01      0.01      0.01      0.19         0.01
  SWR00356798                 6.41      6.41      9.55      0.01         0.01
  SWR00356805                 9.55      9.55     11.88      0.01         0.01
  SWR00356808                11.88     11.88     13.81      0.01         0.01
  SWR00356813                 1.55      1.55     10.12      0.01         0.01
  SWR00358087                 0.01      0.01      0.01      1.11         0.01
  SWR00358099                 1.19      1.19      1.76      0.01         0.01
  SWR00358099A                0.01      0.01      1.00      0.01         0.01
  SWR00358152                 0.01      0.01      0.01      1.27         0.01
  SWR00358153                 0.01      0.39      0.01      1.44         0.01
  SWR00358154                 0.39      0.59      0.39      0.91         0.39
  SWR00358451                 1.52      1.52      2.54      0.01         0.01
  SWR00358452                 2.54      2.54      3.64      0.01         0.01
  SWR00358458                 0.01      0.01      1.52      0.01         0.01
  SWR00358460                 1.91      1.91      2.67      0.01         0.01
  SWR00358462                 2.67      2.67      3.45      0.01         0.01
  SWR00358466                 5.34      5.34     36.29      0.01         0.01
  SWR00358470                 0.01      0.01    149.62      0.01         0.01
  SWR00358473                 2.70      2.70      2.96      0.01         0.03
  SWR00359407                 1.76      1.76      2.70      0.01         0.01
  SWR00359623                 0.01      0.48      0.01      0.78         0.01
  SWR00359667                 0.01      0.01      0.48      0.01         0.01
  SWR00363642                 0.01      0.01      3.35      0.01         0.01
  SWR00363644                 0.01      0.01      3.35      0.01         0.01
  SWR00407476                 0.01      0.01    744.00      0.01         0.01
  SWR00433272                 4.04      4.07      4.04      9.17         2.34
  SWR00433311                 3.94      4.04      4.04      0.55         0.34
  SWR00433313                 3.98      4.04      3.98      4.37         3.97
  SWR00433315                 3.93      3.94      3.96      3.81         3.59
  SWR00433317                 3.91      3.92      3.94      3.75         3.49
  SWR00433319                 3.80      3.88      3.80      4.41         3.80
  SWR00433322                 3.76      3.85      3.76      4.50         3.76
  SWR00433323                 3.66      3.79      3.66      4.51         3.66
  SWR00433325                 3.68      3.70      3.72      3.20         2.94
  SWR00433327                 3.44      3.79      3.44      6.16         3.44
  SWR00433329                 3.43      3.45      3.43      4.50         3.43
  SWR00433331                 3.42      3.44      3.42      4.55         3.41
  SWR00435143               744.00    744.00    744.00      0.01         0.01
  SWR00435250                 3.26      3.26      3.41      0.01         0.01
  SWR00442726                 0.01      0.01      0.01     11.22         0.01
  SWR00444828                 5.71     10.94      5.71     11.12         5.71
  SWR00444910                 0.01      0.01     11.07    743.97         0.01
  SWR00444916                 0.01      0.01      4.44      0.01         0.01
  SWR00444918                 5.19      5.19     10.94      0.01         0.05
  SWR00444927                 0.01      4.41      0.01     10.72         0.01
  SWR00444928                 4.40      5.71      4.40     11.08         4.40
  SWR00468562                 0.01      0.01      0.01    613.06         0.01
  SWR00468564                 0.01      0.01      0.01    333.69         0.01
  SWR00469900                 0.01      0.01      0.22      0.01         0.01
  SWR00475515                 3.00      3.62      3.00      5.48         3.00
  SWR00475551                 0.01      3.00      0.01      4.98         0.01
  SWR00475558                 0.01      2.48      0.01      2.76         0.01
  SWR00489436                 3.23      3.23      3.68      0.01         0.01
  SWR00489437                 3.68      3.68      4.19      0.01         0.01
  SWR00489499                 5.41      5.41      6.41      0.01         0.01
  SWR00489500                 4.83      4.83      5.41      0.01         0.01
  SWR00489501                 4.26      4.26      4.83      0.01         0.01
  SWR00489767                 2.27      2.27      2.69      0.01         0.01
  SWR00489768                 1.52      1.52      2.27      0.01         0.01
  SWR00489771                 1.15      1.15      1.52      0.01         0.01
  SWR00489775                 0.16      0.16      1.15      0.01         0.01
  SWR00489779                 2.69      2.69      3.14      0.01         0.01
  SWR00489793                 0.01      0.01      4.19      0.01         0.01
  SWR00489794                 0.01      0.01      5.38      0.01         0.01
  SWR00489795                 0.01      0.01      4.54      0.01         0.01
  SWR00489796                 3.46      3.46      3.91      0.01         0.01
  SWR00496828                 0.01      0.01      0.16      0.01         0.01
  SWR00516474                 0.01      0.01      0.01    546.77         0.01
  SWR00529530                 0.01      0.01      0.01    744.00         0.01
  SWR00597901                 7.38      7.55      7.38      8.62         7.05
  SWR00597902                 3.63      3.63      6.82      0.01         0.01
  SWR00597903                 0.88      0.88      2.47      0.01         0.01
  SWR00597920                 0.01      8.40      0.01     17.06         0.01
  SWR00601820                 0.01      0.01      0.01    744.00         0.01
  SWR00666900                 0.01      0.01    515.13      0.01         0.01
  SWR00667219A                0.01      0.01     11.31      0.01         0.01
  SWR00668808                 0.01      0.01      0.01      3.13         0.01
  SWR00669587                 3.42      3.42      3.52      0.01         0.01
  SWR00670069                 0.99      0.99     11.21      0.01         0.01
  SWR00670573                 0.91      0.91      1.32      0.01         0.01
  SWR00670574                 0.77      0.78      0.91      0.01         0.25
  SWR00670579                 7.84      7.84    744.00      0.01         0.01
  SWR00670583                 2.63      2.63      7.84      0.01         0.01
  SWR00670588                 2.29      2.29      2.63      0.01         0.01
  SWR00670598                 0.01      0.01    513.21      0.01         0.01
  SWR00670603                 0.01      0.01      0.72      0.01         0.01
  SWR00670606                 0.72      0.72      2.26      0.01         0.01
  SWR00670608                 1.72      1.72      2.29      0.01         0.01
  SWR00670636                43.61     43.61     44.50      1.85         1.88
  SWR00670648-10IN          744.00    744.00    744.00    488.53       281.26
  SWR00670648-6IN           744.00    744.00    744.00    744.00       536.07
  SWR00670648-8IN           744.00    744.00    744.00    744.00       350.43
  SWR00670650-10IN            0.01      0.01    744.00      0.01         0.01
  SWR00670650-6IN             0.01      0.01    744.00      0.01         0.01
  SWR00670650-8IN             0.01      0.01    744.00      0.01         0.01
  SWR00670759                44.50     44.50     46.29      1.34         1.36
  SWR00670923                 0.01      0.01      0.01      0.57         0.01
  SWR00670959                 0.01      0.01      0.01      0.54         0.01
  SWR00670964                 0.01      0.01      0.01      0.85         0.01
  SWR00671118                 0.01      0.01      0.01      1.19         0.01
  SWR00671119                 0.01      0.01      0.01      1.09         0.01
  SWR00671188                 0.01      0.01      0.01      0.09         0.01
  SWR00671227                 0.01      0.01      0.01      0.37         0.01
  SWR00671228                 0.01      0.01      0.01      0.57         0.01
  SWR00671298                 0.01      0.01     34.07      0.01         0.01
  SWR00671307                 0.76      0.76      0.85      0.01         0.01
  SWR00671327                 2.44      2.44      3.62      0.01         0.01
  SWR00671329                 2.04      2.04      2.44      0.01         0.01
  SWR00671330A                1.70      1.70      2.04      0.01         0.01
  SWR00671350                14.28     14.28     25.24      0.01         0.01
  SWR00671374                 0.01      0.01      0.01      0.40         0.01
  SWR00671388-10IN            0.01      0.01    744.00      0.01         0.01
  SWR00671388-6IN             0.01      0.01    744.00      0.01         0.01
  SWR00671388-8IN             0.01      0.01    744.00      0.01         0.01
  SWR00671466                 0.01      0.01      0.01      0.01         0.01
  SWR00671659                 0.01      0.01      0.01      0.04         0.01
  SWR00671671                 0.01      0.01      0.01      0.02         0.01
  SWR00672567                 0.01      0.01      0.01      1.17         0.01
  SWR00682764                 2.02      2.02      8.15      0.01         0.01
  SWR00682770                 8.15      8.16     12.66      0.29         0.21
  SWR00682771                12.65     12.65     16.03      0.04         0.01
  SWR00682775                 0.01      0.01      2.02      0.01         0.01
  SWR00684843                 0.01      0.01      0.01      0.59         0.01
  SWR00684987                16.03     16.03     19.86      0.01         0.01
  SWR00684988                45.13     45.13     52.30      0.01         0.01
  TO_GC_IN                    3.09      3.09      4.02      0.01         0.01
  TO_GC_IN2                   3.09      3.09      4.02      0.01         0.01
  TO_GC_IN3                   3.09      3.09      4.02      0.01         0.01
  TO_GC_IN4                   3.08      7.19      4.02      0.01         0.02
  TO-IC                      15.22     15.22     16.18      0.01         0.01
  SHOCKOE_RETENTION_OUTLET        1.82      1.82    513.85      0.01         0.01
  
  
  ***************
  Pumping Summary
  ***************
  
  ---------------------------------------------------------------------------------------------------------
                                                  Min       Avg       Max     Total     Power    % Time Off
                        Percent   Number of      Flow      Flow      Flow    Volume     Usage    Pump Curve
  Pump                 Utilized   Start-Ups       CFS       CFS       CFS  10^6 gal     Kw-hr    Low   High
  ---------------------------------------------------------------------------------------------------------
  DSPS-1                   0.00           0      0.00      0.00      0.00     0.000      0.00    0.0    0.0
  DSPS-2                   0.00           0      0.00      0.00      0.00     0.000      0.00    0.0    0.0
  DSPS-3                   0.00           0      0.00      0.00      0.00     0.000      0.00    0.0    0.0
  DSPS-4                   0.00           0      0.00      0.00      0.00     0.000      0.00    0.0    0.0
  DSPS-5                   0.13           1      0.00     33.40     33.40     0.898      9.88    0.0    0.0
  PS_DOUGLASDALE          32.83        3218      0.00      4.33     11.60    27.240  12422.63    0.0    0.0
  PS_HAMPTON             100.00           0      0.00      0.02      1.81     0.269     33.16    0.0    0.0
  PS_MCCLOY                1.39          72      0.00      6.04      6.29     1.692    492.35    0.0    0.0
  PS_SHOCKOE               0.00           0      0.00      0.00      0.00     0.000      0.00    0.0    0.0
  PS_UPHAM-BROOK         100.00           0      0.00      1.37      1.50    27.422  16145.10    0.0    0.0
  SDP-13CFS                0.00           0      0.00      0.00      0.00     0.000      0.00    0.0    0.0
  SDP-15CFS                0.00           0      0.00      0.00      0.00     0.000      0.00    0.0    0.0
  SDP-17CFS                0.00           0      0.00      0.00      0.00     0.000      0.00    0.0    0.0
  SDP-21CFS                0.00           0      0.00      0.00      0.00     0.000      0.00    0.0    0.0
  SDP-25CFS                0.00           0      0.00      0.00      0.00     0.000      0.00    0.0    0.0
  SDP-30CFS                6.45           1      0.00     30.00     30.00    38.776   1203.95    0.0    0.0
  SDP-35CFS                0.00           0      0.00      0.00      0.00     0.000      0.00    0.0    0.0
  SDP-40CFS                0.00           0      0.00      0.00      0.00     0.000      0.00    0.0    0.0
  SDP-55CFS                0.00           0      0.00      0.00      0.00     0.000      0.00    0.0    0.0
  SDP-50CFS                0.00           0      0.00      0.00      0.00     0.000      0.00    0.0    0.0
  SDP-10CFS                0.00           0      0.00      0.00      0.00     0.000      0.00    0.0    0.0
  SDP-100CFS               0.00           0      0.00      0.00      0.00     0.000      0.00    0.0    0.0
  

  Analysis begun on:  Wed Jun 24 09:27:45 2026
  Analysis ended on:  Wed Jun 24 09:34:46 2026
  Total elapsed time: 00:07:01