
  EPA STORM WATER MANAGEMENT MODEL - VERSION 5.2 (Build 5.2.4)
  ------------------------------------------------------------

  
  ERROR 235: invalid infiltration parameters at line 13676 of [INFIL] section:
  MCWF003C0012     0.2        1.0        0.1        0.001      0         


  Analysis begun on:  Wed Jun 24 09:34:46 2026
  Analysis ended on:  Wed Jun 24 09:34:46 2026
  Total elapsed time: < 1 sec