
  EPA STORM WATER MANAGEMENT MODEL - VERSION 5.2 (Build 5.2.4)
  ------------------------------------------------------------

  
  ERROR 211: invalid number -373.000000 at line 16825 of [JUNC] section:
  F44226           373.000000 -373.000000 0.000000   0.000000   0.000000  

  
  ERROR 211: invalid number -369.720000 at line 16826 of [JUNC] section:
  F44228           369.720000 -369.720000 0.000000   0.000000   0.000000  


  Analysis begun on:  Wed Jun 24 09:40:12 2026
  Analysis ended on:  Wed Jun 24 09:40:12 2026
  Total elapsed time: < 1 sec