
  EPA STORM WATER MANAGEMENT MODEL - VERSION 5.2 (Build 5.2.4)
  ------------------------------------------------------------

  
  ERROR 211: invalid number -6163.890000 at line 2600 of [JUNC] section:
  18	6163.890000	-6163.890000	0.000000	0.000000	0.000000

  
  ERROR 211: invalid number -6146.170000 at line 2611 of [JUNC] section:
  20	6146.170000	-6146.170000	0.000000	0.000000	0.000000

  
  ERROR 211: invalid number -6105.280000 at line 2622 of [JUNC] section:
  22	6105.280000	-6105.280000	0.000000	0.000000	0.000000

  
  ERROR 211: invalid number -6076.510000 at line 2631 of [JUNC] section:
  24	6076.510000	-6076.510000	0.000000	0.000000	0.000000

  
  ERROR 211: invalid number -6062.130000 at line 2632 of [JUNC] section:
  26	6062.130000	-6062.130000	0.000000	0.000000	0.000000

  
  ERROR 211: invalid number -6033.850000 at line 2634 of [JUNC] section:
  30	6033.850000	-6033.850000	0.000000	0.000000	0.000000

  
  ERROR 211: invalid number -6019.148000 at line 2635 of [JUNC] section:
  32	6019.148000	-6019.148000	0.000000	0.000000	0.000000

  
  ERROR 211: invalid number -6013.790000 at line 2636 of [JUNC] section:
  34	6013.790000	-6013.790000	0.000000	0.000000	0.000000

  
  ERROR 211: invalid number -6000.010000 at line 2637 of [JUNC] section:
  36	6000.010000	-6000.010000	0.000000	0.000000	0.000000

  
  ERROR 211: invalid number -5998.269000 at line 2638 of [JUNC] section:
  38	5998.269000	-5998.269000	0.000000	0.000000	0.000000

  
  ERROR 211: invalid number -5986.540000 at line 2639 of [JUNC] section:
  40	5986.540000	-5986.540000	0.000000	0.000000	0.000000

  
  ERROR 211: invalid number -5978.470000 at line 2640 of [JUNC] section:
  42	5978.470000	-5978.470000	0.000000	0.000000	0.000000

  
  ERROR 211: invalid number -5970.526000 at line 2641 of [JUNC] section:
  44	5970.526000	-5970.526000	0.000000	0.000000	0.000000

  
  ERROR 211: invalid number -5961.680000 at line 2642 of [JUNC] section:
  46	5961.680000	-5961.680000	0.000000	0.000000	0.000000

  
  ERROR 211: invalid number -5955.360000 at line 2643 of [JUNC] section:
  48	5955.360000	-5955.360000	0.000000	0.000000	0.000000

  
  ERROR 211: invalid number -5951.000000 at line 2644 of [JUNC] section:
  50	5951.000000	-5951.000000	0.000000	0.000000	0.000000

  
  ERROR 211: invalid number -5939.540000 at line 2645 of [JUNC] section:
  52	5939.540000	-5939.540000	0.000000	0.000000	0.000000

  
  ERROR 211: invalid number -6103.190000 at line 2646 of [JUNC] section:
  54	6103.190000	-6103.190000	0.000000	0.000000	0.000000

  
  ERROR 211: invalid number -6059.790000 at line 2647 of [JUNC] section:
  56	6059.790000	-6059.790000	0.000000	0.000000	0.000000

  
  ERROR 211: invalid number -6009.650000 at line 2648 of [JUNC] section:
  58	6009.650000	-6009.650000	0.000000	0.000000	0.000000

  
  ERROR 211: invalid number -6034.420000 at line 2649 of [JUNC] section:
  60	6034.420000	-6034.420000	0.000000	0.000000	0.000000

  
  ERROR 211: invalid number -6016.030000 at line 2650 of [JUNC] section:
  62	6016.030000	-6016.030000	0.000000	0.000000	0.000000

  
  ERROR 211: invalid number -5999.020000 at line 2651 of [JUNC] section:
  64	5999.020000	-5999.020000	0.000000	0.000000	0.000000

  
  ERROR 211: invalid number -5965.910000 at line 2652 of [JUNC] section:
  66	5965.910000	-5965.910000	0.000000	0.000000	0.000000

  
  ERROR 211: invalid number  at line 8180 of [XSECT] section:
  182	CIRCULAR	0.000000	0.000000	0.000000	0.000000	1	0

  
  ERROR 211: invalid number  at line 8181 of [XSECT] section:
  184	CIRCULAR	0.000000	0.000000	0.000000	0.000000	1	0

  
  ERROR 211: invalid number  at line 8182 of [XSECT] section:
  186	CIRCULAR	0.000000	0.000000	0.000000	0.000000	1	0

  
  ERROR 211: invalid number  at line 8183 of [XSECT] section:
  188	CIRCULAR	0.000000	0.000000	0.000000	0.000000	1	0

  
  ERROR 211: invalid number  at line 8184 of [XSECT] section:
  190	CIRCULAR	0.000000	0.000000	0.000000	0.000000	1	0

  
  ERROR 211: invalid number  at line 8185 of [XSECT] section:
  192	CIRCULAR	0.000000	0.000000	0.000000	0.000000	1	0

  
  ERROR 211: invalid number  at line 8186 of [XSECT] section:
  194	CIRCULAR	0.000000	0.000000	0.000000	0.000000	1	0

  
  ERROR 211: invalid number  at line 8187 of [XSECT] section:
  196	CIRCULAR	0.000000	0.000000	0.000000	0.000000	1	0

  
  ERROR 211: invalid number  at line 8188 of [XSECT] section:
  198	CIRCULAR	0.000000	0.000000	0.000000	0.000000	1	0

  
  ERROR 211: invalid number  at line 8189 of [XSECT] section:
  200	CIRCULAR	0.000000	0.000000	0.000000	0.000000	1	0

  
  ERROR 211: invalid number  at line 8190 of [XSECT] section:
  202	CIRCULAR	0.000000	0.000000	0.000000	0.000000	1	0

  
  ERROR 211: invalid number  at line 8191 of [XSECT] section:
  204	CIRCULAR	0.000000	0.000000	0.000000	0.000000	1	0

  
  ERROR 211: invalid number  at line 8192 of [XSECT] section:
  206	CIRCULAR	0.000000	0.000000	0.000000	0.000000	1	0

  
  ERROR 211: invalid number  at line 8193 of [XSECT] section:
  208	CIRCULAR	0.000000	0.000000	0.000000	0.000000	1	0

  
  ERROR 211: invalid number  at line 8194 of [XSECT] section:
  210	CIRCULAR	0.000000	0.000000	0.000000	0.000000	1	0

  
  ERROR 211: invalid number  at line 8195 of [XSECT] section:
  212	CIRCULAR	0.000000	0.000000	0.000000	0.000000	1	0

  
  ERROR 211: invalid number  at line 8196 of [XSECT] section:
  214	CIRCULAR	0.000000	0.000000	0.000000	0.000000	1	0

  
  ERROR 211: invalid number  at line 8197 of [XSECT] section:
  216	CIRCULAR	0.000000	0.000000	0.000000	0.000000	1	0

  
  ERROR 211: invalid number  at line 8198 of [XSECT] section:
  218	CIRCULAR	0.000000	0.000000	0.000000	0.000000	1	0

  
  ERROR 211: invalid number  at line 8199 of [XSECT] section:
  238	CIRCULAR	0.000000	0.000000	0.000000	0.000000	1	0

  
  ERROR 211: invalid number  at line 8200 of [XSECT] section:
  240	CIRCULAR	0.000000	0.000000	0.000000	0.000000	1	0

  
  ERROR 211: invalid number  at line 8201 of [XSECT] section:
  242	CIRCULAR	0.000000	0.000000	0.000000	0.000000	1	0

  
  ERROR 211: invalid number  at line 8202 of [XSECT] section:
  258	CIRCULAR	0.000000	0.000000	0.000000	0.000000	1	0

  
  ERROR 211: invalid number  at line 8203 of [XSECT] section:
  260	CIRCULAR	0.000000	0.000000	0.000000	0.000000	1	0

  
  ERROR 211: invalid number  at line 8204 of [XSECT] section:
  262	CIRCULAR	0.000000	0.000000	0.000000	0.000000	1	0

  
  ERROR 211: invalid number  at line 8205 of [XSECT] section:
  264	CIRCULAR	0.000000	0.000000	0.000000	0.000000	1	0

  
  ERROR 211: invalid number  at line 8206 of [XSECT] section:
  266	CIRCULAR	0.000000	0.000000	0.000000	0.000000	1	0

  
  ERROR 211: invalid number  at line 8207 of [XSECT] section:
  268	CIRCULAR	0.000000	0.000000	0.000000	0.000000	1	0

  
  ERROR 211: invalid number  at line 8208 of [XSECT] section:
  270	CIRCULAR	0.000000	0.000000	0.000000	0.000000	1	0

  
  ERROR 211: invalid number  at line 8209 of [XSECT] section:
  272	CIRCULAR	0.000000	0.000000	0.000000	0.000000	1	0

  
  ERROR 211: invalid number  at line 8210 of [XSECT] section:
  274	CIRCULAR	0.000000	0.000000	0.000000	0.000000	1	0

  
  ERROR 211: invalid number  at line 8211 of [XSECT] section:
  276	CIRCULAR	0.000000	0.000000	0.000000	0.000000	1	0

  
  ERROR 211: invalid number  at line 8212 of [XSECT] section:
  278	CIRCULAR	0.000000	0.000000	0.000000	0.000000	1	0

  
  ERROR 211: invalid number  at line 8213 of [XSECT] section:
  280	CIRCULAR	0.000000	0.000000	0.000000	0.000000	1	0

  
  ERROR 211: invalid number  at line 8214 of [XSECT] section:
  282	CIRCULAR	0.000000	0.000000	0.000000	0.000000	1	0

  
  ERROR 211: invalid number  at line 8215 of [XSECT] section:
  284	CIRCULAR	0.000000	0.000000	0.000000	0.000000	1	0

  
  ERROR 211: invalid number  at line 8216 of [XSECT] section:
  286	CIRCULAR	0.000000	0.000000	0.000000	0.000000	1	0

  
  ERROR 211: invalid number  at line 8217 of [XSECT] section:
  288	CIRCULAR	0.000000	0.000000	0.000000	0.000000	1	0

  
  ERROR 211: invalid number  at line 8218 of [XSECT] section:
  290	CIRCULAR	0.000000	0.000000	0.000000	0.000000	1	0

  
  ERROR 211: invalid number  at line 8219 of [XSECT] section:
  292	CIRCULAR	0.000000	0.000000	0.000000	0.000000	1	0

  
  ERROR 211: invalid number  at line 8220 of [XSECT] section:
  294	CIRCULAR	0.000000	0.000000	0.000000	0.000000	1	0

  
  ERROR 211: invalid number  at line 8221 of [XSECT] section:
  296	CIRCULAR	0.000000	0.000000	0.000000	0.000000	1	0

  
  ERROR 211: invalid number  at line 8225 of [XSECT] section:
  304	CIRCULAR	0.000000	0.000000	0.000000	0.000000	1	0

  
  ERROR 211: invalid number  at line 8229 of [XSECT] section:
  CHLDDRWFM2	FORCE_MAIN	0.000000	0.000000	0.000000	0.000000	1	0


  Analysis begun on:  Wed Jun 24 12:02:01 2026
  Analysis ended on:  Wed Jun 24 12:02:01 2026
  Total elapsed time: < 1 sec