
  EPA STORM WATER MANAGEMENT MODEL - VERSION 5.2 (Build 5.2.4)
  ------------------------------------------------------------

  
  ERROR 211: invalid number -75.100000 at line 129 of [JUNC] section:
  JUNC_6360	75.100000	-75.100000	0.000000	0.000000	0.000000

  
  ERROR 211: invalid number -71.787000 at line 151 of [JUNC] section:
  MH-10	71.787000	-71.787000	0.000000	0.000000	0.000000

  
  ERROR 211: invalid number -71.025000 at line 157 of [JUNC] section:
  MH-11	71.025000	-71.025000	0.000000	0.000000	0.000000

  
  ERROR 211: invalid number -4.690000 at line 797 of [JUNC] section:
  SFT279	86.140000	-4.690000	0.000000	0.000000	0.000000

  
  ERROR 211: invalid number -3.967000 at line 1177 of [JUNC] section:
  SFT90	135.297000	-3.967000	0.000000	0.000000	0.000000

  
  ERROR 211: invalid number -3.226000 at line 1179 of [JUNC] section:
  SFT91	135.297000	-3.226000	0.000000	0.000000	0.000000

  
  ERROR 211: invalid number -2.853000 at line 1181 of [JUNC] section:
  SFT92	135.297000	-2.853000	0.000000	0.000000	0.000000

  
  ERROR 211: invalid number -2.788000 at line 1182 of [JUNC] section:
  SFT93	135.298000	-2.788000	0.000000	0.000000	0.000000

  
  ERROR 211: invalid number -1.307000 at line 1184 of [JUNC] section:
  SFT95	135.297000	-1.307000	0.000000	0.000000	0.000000

  
  ERROR 211: invalid number -1.192000 at line 1185 of [JUNC] section:
  SFT96	135.297000	-1.192000	0.000000	0.000000	0.000000

  
  ERROR 211: invalid number -1.152000 at line 1189 of [JUNC] section:
  SFT97	135.297000	-1.152000	0.000000	0.000000	0.000000

  
  ERROR 211: invalid number -1.024000 at line 1190 of [JUNC] section:
  SFT98	135.298000	-1.024000	0.000000	0.000000	0.000000

  
  ERROR 211: invalid number -0.257000 at line 8716 of [JUNC] section:
  SMH16831	93.100000	-0.257000	0.000000	0.000000	0.000000

  
  ERROR 211: invalid number -1.084000 at line 8717 of [JUNC] section:
  SMH16832	92.730000	-1.084000	0.000000	0.000000	0.000000

  
  ERROR 211: invalid number -2.143000 at line 8719 of [JUNC] section:
  SMH16834	91.870000	-2.143000	0.000000	0.000000	0.000000

  
  ERROR 211: invalid number -0.342000 at line 17569 of [JUNC] section:
  SMH33193	111.500000	-0.342000	0.000000	0.000000	0.000000

  
  ERROR 211: invalid number -0.365000 at line 21959 of [JUNC] section:
  SMH5948	91.490000	-0.365000	0.000000	0.000000	0.000000

  
  ERROR 211: invalid number -0.265000 at line 21989 of [JUNC] section:
  SMH5975	89.223000	-0.265000	0.000000	0.000000	0.000000

  
  ERROR 211: invalid number -0.169000 at line 21991 of [JUNC] section:
  SMH5977	89.146000	-0.169000	0.000000	0.000000	0.000000

  
  ERROR 211: invalid number -0.277000 at line 21992 of [JUNC] section:
  SMH5978	88.485000	-0.277000	0.000000	0.000000	0.000000

  
  ERROR 211: invalid number -2.384000 at line 21993 of [JUNC] section:
  SMH5979	87.576000	-2.384000	0.000000	0.000000	0.000000

  
  ERROR 211: invalid number -2.929000 at line 21995 of [JUNC] section:
  SMH5980	87.500000	-2.929000	0.000000	0.000000	0.000000

  
  ERROR 211: invalid number -1.385000 at line 23109 of [JUNC] section:
  SMH7004	90.614000	-1.385000	0.000000	0.000000	0.000000

  
  ERROR 211: invalid number -0.547000 at line 23110 of [JUNC] section:
  SMH7005	89.580000	-0.547000	0.000000	0.000000	0.000000

  
  ERROR 211: invalid number -0.530000 at line 23111 of [JUNC] section:
  SMH7006	89.430000	-0.530000	0.000000	0.000000	0.000000

  
  ERROR 211: invalid number -0.442000 at line 26343 of [JUNC] section:
  STRUCT_1316	111.600000	-0.442000	0.000000	0.000000	0.000000

  
  ERROR 209: undefined object SFT3479 at line 39684 of [CONDUIT] section:
  SMN22588	SMH21512	SFT3479	229.368150	0.013000	0.071000	0.000000	0.000000	0.000000

  
  ERROR 209: undefined object SMH13485 at line 43857 of [CONDUIT] section:
  SMN31016	SMH13485	SMH29148	1.132506	0.013000	0.000000	0.000000	0.000000	0.000000

  
  ERROR 209: undefined object FITT_34157 at line 44276 of [CONDUIT] section:
  SMN32351	FITT_34157	J-ET-39513	17.543187	0.010000	0.000000	0.000000	0.000000	0.000000

  
  ERROR 209: undefined object SFC5 at line 46382 of [CONDUIT] section:
  SMN37821	SGJ11883	SFC5	304.770000	0.013000	0.000000	0.000000	0.000000	0.000000


  Analysis begun on:  Wed Jun 24 12:02:27 2026
  Analysis ended on:  Wed Jun 24 12:02:27 2026
  Total elapsed time: < 1 sec