
  EPA STORM WATER MANAGEMENT MODEL - VERSION 5.2 (Build 5.2.4)
  ------------------------------------------------------------

  
  ERROR 209: undefined object -1 at line 52 of [SUBCATCHMENT] section:
  -10-A001         -1               -10-A001         2.996045 0.000000 588.400000 0.000000 0.000000                 

  
  ERROR 209: undefined object -1 at line 54 of [SUBCATCHMENT] section:
  -10-A020         -1               -10-A020         2.569564 0.000000 544.900000 0.000000 0.000000                 

  
  ERROR 209: undefined object -1 at line 56 of [SUBCATCHMENT] section:
  -10-A027         -1               -10-A027         2.286124 0.000000 514.000000 0.000000 0.000000                 

  
  ERROR 209: undefined object -1 at line 58 of [SUBCATCHMENT] section:
  -10-B014         -1               -10-B014         2.658894 0.000000 532.500000 0.000000 0.000000                 

  
  ERROR 209: undefined object -1 at line 60 of [SUBCATCHMENT] section:
  -10-B018         -1               -10-B018         2.578944 0.000000 524.500000 0.000000 0.000000                 

  
  ERROR 209: undefined object -1 at line 62 of [SUBCATCHMENT] section:
  -10-B029         -1               -10-B029         3.983726 0.000000 651.800000 0.000000 0.000000                 

  
  ERROR 209: undefined object -1 at line 64 of [SUBCATCHMENT] section:
  -10A001          -1               -10A001          3.359645 0.000000 623.100000 0.000000 0.000000                 

  
  ERROR 209: undefined object -1 at line 66 of [SUBCATCHMENT] section:
  -10A020          -1               -10A020          3.287285 0.000000 616.300000 0.000000 0.000000                 

  
  ERROR 209: undefined object -1 at line 68 of [SUBCATCHMENT] section:
  -10A044          -1               -10A035          3.715566 0.000000 655.200000 0.000000 0.000000                 

  
  ERROR 209: undefined object -1 at line 70 of [SUBCATCHMENT] section:
  -10A064          -1               -10A035          2.161923 0.000000 499.800000 0.000000 0.000000                 

  
  ERROR 209: undefined object -1 at line 72 of [SUBCATCHMENT] section:
  -10A073          -1               -10A035          2.523244 0.000000 540.000000 0.000000 0.000000                 

  
  ERROR 209: undefined object -1 at line 74 of [SUBCATCHMENT] section:
  -10B016          -1               -10A035          2.836564 0.000000 572.500000 0.000000 0.000000                 

  
  ERROR 209: undefined object -1 at line 76 of [SUBCATCHMENT] section:
  -10C020          -1               -10C020          0.911001 0.000000 355.400000 0.000000 0.000000                 

  
  ERROR 209: undefined object -1 at line 78 of [SUBCATCHMENT] section:
  -10C024          -1               -10C024          2.265403 0.000000 560.500000 0.000000 0.000000                 

  
  ERROR 209: undefined object -1 at line 80 of [SUBCATCHMENT] section:
  -10C072          -1               -10C072          2.171003 0.000000 548.700000 0.000000 0.000000                 

  
  ERROR 209: undefined object -1 at line 82 of [SUBCATCHMENT] section:
  -10D002          -1               -10D002          2.767404 0.000000 619.500000 0.000000 0.000000                 

  
  ERROR 209: undefined object -1 at line 84 of [SUBCATCHMENT] section:
  -10D020          -1               -10D020          2.439204 0.000000 581.600000 0.000000 0.000000                 

  
  ERROR 209: undefined object -1 at line 86 of [SUBCATCHMENT] section:
  -10D045          -1               -10D045          2.256803 0.000000 559.400000 0.000000 0.000000                 

  
  ERROR 209: undefined object -1 at line 88 of [SUBCATCHMENT] section:
  -10D079          -1               -10D079          1.723303 0.000000 488.800000 0.000000 0.000000                 

  
  ERROR 209: undefined object -1 at line 90 of [SUBCATCHMENT] section:
  -10E009          -1               -10E009          2.091403 0.000000 538.500000 0.000000 0.000000                 

  
  ERROR 209: undefined object -1 at line 92 of [SUBCATCHMENT] section:
  -10E018          -1               -10E018          2.120903 0.000000 542.300000 0.000000 0.000000                 

  
  ERROR 209: undefined object -1 at line 94 of [SUBCATCHMENT] section:
  -10E044          -1               -10E044          1.940603 0.000000 518.700000 0.000000 0.000000                 

  
  ERROR 209: undefined object -1 at line 96 of [SUBCATCHMENT] section:
  -10E047          -1               -10E047          2.637204 0.000000 604.700000 0.000000 0.000000                 

  
  ERROR 209: undefined object -1 at line 98 of [SUBCATCHMENT] section:
  -10E056          -1               -10E056          1.159202 0.000000 400.900000 0.000000 0.000000                 

  
  ERROR 209: undefined object -1 at line 100 of [SUBCATCHMENT] section:
  -10E068          -1               -10E068          1.922003 0.000000 516.200000 0.000000 0.000000                 

  
  ERROR 209: undefined object -1 at line 102 of [SUBCATCHMENT] section:
  -10F024          -1               -10F024          2.473004 0.000000 585.600000 0.000000 0.000000                 

  
  ERROR 209: undefined object -1 at line 104 of [SUBCATCHMENT] section:
  -10F025          -1               -10F025          0.521301 0.000000 268.800000 0.000000 0.000000                 

  
  ERROR 209: undefined object -1 at line 106 of [SUBCATCHMENT] section:
  -11-A005         -1               -11-A005         3.829676 0.000000 639.100000 0.000000 0.000000                 

  
  ERROR 209: undefined object -1 at line 108 of [SUBCATCHMENT] section:
  -11-A010         -1               -11-A010         3.296805 0.000000 593.000000 0.000000 0.000000                 

  
  ERROR 209: undefined object -1 at line 110 of [SUBCATCHMENT] section:
  -11-A013         -1               -11-A013         3.599576 0.000000 619.600000 0.000000 0.000000                 

  
  ERROR 209: undefined object -1 at line 112 of [SUBCATCHMENT] section:
  -11-B001         -1               -11-B001         3.401975 0.000000 602.400000 0.000000 0.000000                 

  
  ERROR 209: undefined object -1 at line 114 of [SUBCATCHMENT] section:
  -11-B006         -1               -11-B006         4.385037 0.000000 683.900000 0.000000 0.000000                 

  
  ERROR 209: undefined object -1 at line 116 of [SUBCATCHMENT] section:
  -11A010          -1               -11A010          4.633467 0.000000 703.000000 0.000000 0.000000                 

  
  ERROR 209: undefined object -1 at line 118 of [SUBCATCHMENT] section:
  -11C012          -1               -11C012          3.116005 0.000000 657.300000 0.000000 0.000000                 

  
  ERROR 209: undefined object -1 at line 120 of [SUBCATCHMENT] section:
  -11C048          -1               -11C048          1.987803 0.000000 525.000000 0.000000 0.000000                 

  
  ERROR 209: undefined object -1 at line 122 of [SUBCATCHMENT] section:
  -11C076          -1               -11C076          4.172306 0.000000 760.600000 0.000000 0.000000                 

  
  ERROR 209: undefined object -1 at line 124 of [SUBCATCHMENT] section:
  -11D001          -1               -11D001          3.083105 0.000000 653.800000 0.000000 0.000000                 

  
  ERROR 209: undefined object -1 at line 126 of [SUBCATCHMENT] section:
  -11D049          -1               -11D049          2.158103 0.000000 547.000000 0.000000 0.000000                 

  
  ERROR 209: undefined object -1 at line 128 of [SUBCATCHMENT] section:
  -11e004          -1               -11E004          4.002106 0.000000 744.900000 0.000000 0.000000                 

  
  ERROR 209: undefined object -1 at line 130 of [SUBCATCHMENT] section:
  -11E016          -1               -11E016          4.886308 0.000000 823.100000 0.000000 0.000000                 

  
  ERROR 209: undefined object -1 at line 132 of [SUBCATCHMENT] section:
  -11E040          -1               -11E040          3.320305 0.000000 678.500000 0.000000 0.000000                 

  
  ERROR 209: undefined object -1 at line 134 of [SUBCATCHMENT] section:
  -12-A005         -1               -12-A005         2.912914 0.000000 557.400000 0.000000 0.000000                 

  
  ERROR 209: undefined object -1 at line 136 of [SUBCATCHMENT] section:
  -12-A028         -1               -12-A028         4.190946 0.000000 668.600000 0.000000 0.000000                 

  
  ERROR 209: undefined object -1 at line 138 of [SUBCATCHMENT] section:
  -12-A036         -1               -12-A036         2.764844 0.000000 543.000000 0.000000 0.000000                 

  
  ERROR 209: undefined object -1 at line 140 of [SUBCATCHMENT] section:
  -12-B005         -1               -12-B005         3.701496 0.000000 628.300000 0.000000 0.000000                 

  
  ERROR 209: undefined object -1 at line 142 of [SUBCATCHMENT] section:
  -12C002          -1               -12C002          1.766603 0.000000 494.900000 0.000000 0.000000                 

  
  ERROR 209: undefined object -1 at line 144 of [SUBCATCHMENT] section:
  -12C014          -1               -12C014          2.635704 0.000000 604.500000 0.000000 0.000000                 

  
  ERROR 209: undefined object -1 at line 146 of [SUBCATCHMENT] section:
  -12C030          -1               -12C030          1.175102 0.000000 403.700000 0.000000 0.000000                 

  
  ERROR 209: undefined object -1 at line 148 of [SUBCATCHMENT] section:
  -12C039          -1               -12C039          2.855304 0.000000 629.200000 0.000000 0.000000                 

  
  ERROR 209: undefined object -1 at line 150 of [SUBCATCHMENT] section:
  -12C066          -1               -12C066          3.476405 0.000000 694.300000 0.000000 0.000000                 

  
  ERROR 209: undefined object -1 at line 152 of [SUBCATCHMENT] section:
  -12D003          -1               -12D003          0.218600 0.000000 174.100000 0.000000 0.000000                 

  
  ERROR 209: undefined object -1 at line 154 of [SUBCATCHMENT] section:
  -13-A003         -1               -13-A003         2.379134 0.000000 503.700000 0.000000 0.000000                 

  
  ERROR 209: undefined object -1 at line 156 of [SUBCATCHMENT] section:
  -13-A007         -1               -13-A007         2.137593 0.000000 477.500000 0.000000 0.000000                 

  
  ERROR 209: undefined object -1 at line 158 of [SUBCATCHMENT] section:
  -13-A012         -1               -13-A012         2.250043 0.000000 489.900000 0.000000 0.000000                 

  
  ERROR 209: undefined object -1 at line 160 of [SUBCATCHMENT] section:
  -13-A089         -1               -13-A089         3.966566 0.000000 650.400000 0.000000 0.000000                 

  
  ERROR 209: undefined object -1 at line 162 of [SUBCATCHMENT] section:
  -13-A104         -1               -13-A104         4.214347 0.000000 670.400000 0.000000 0.000000                 

  
  ERROR 209: undefined object -1 at line 164 of [SUBCATCHMENT] section:
  -13-B004         -1               -13-B004         3.449035 0.000000 606.500000 0.000000 0.000000                 

  
  ERROR 209: undefined object -1 at line 166 of [SUBCATCHMENT] section:
  -13-B010         -1               -13-B019         3.817456 0.000000 638.100000 0.000000 0.000000                 

  
  ERROR 209: undefined object -1 at line 168 of [SUBCATCHMENT] section:
  -13C008          -1               -13C008          0.441801 0.000000 247.500000 0.000000 0.000000                 

  
  ERROR 209: undefined object -1 at line 170 of [SUBCATCHMENT] section:
  -13C016          -1               -13C016          3.312105 0.000000 677.700000 0.000000 0.000000                 

  
  ERROR 209: undefined object -1 at line 172 of [SUBCATCHMENT] section:
  -13D008          -1               -13D008          1.665703 0.000000 480.600000 0.000000 0.000000                 

  
  ERROR 209: undefined object -1 at line 174 of [SUBCATCHMENT] section:
  -14-A011         -1               -14-A011         2.518364 0.000000 518.300000 0.000000 0.000000                 

  
  ERROR 209: undefined object -1 at line 176 of [SUBCATCHMENT] section:
  -14-A018         -1               -14-A018         3.326705 0.000000 595.700000 0.000000 0.000000                 

  
  ERROR 209: undefined object -1 at line 178 of [SUBCATCHMENT] section:
  -14-A052         -1               -14-A052         3.150425 0.000000 579.700000 0.000000 0.000000                 

  
  ERROR 209: undefined object -1 at line 180 of [SUBCATCHMENT] section:
  -15-A008         -1               -15-A008         1.492532 0.000000 399.000000 0.000000 0.000000                 

  
  ERROR 209: undefined object -1 at line 182 of [SUBCATCHMENT] section:
  -15-A013         -1               -15-A013         2.978565 0.000000 563.600000 0.000000 0.000000                 

  
  ERROR 209: undefined object -1 at line 184 of [SUBCATCHMENT] section:
  -15-A038         -1               -15-A038         2.086373 0.000000 471.700000 0.000000 0.000000                 

  
  ERROR 209: undefined object -1 at line 186 of [SUBCATCHMENT] section:
  -15-B010         -1               -15-B010         4.768147 0.000000 713.100000 0.000000 0.000000                 

  
  ERROR 209: undefined object -1 at line 188 of [SUBCATCHMENT] section:
  -15-B021         -1               -15-B021         2.421774 0.000000 508.200000 0.000000 0.000000                 

  
  ERROR 209: undefined object -1 at line 190 of [SUBCATCHMENT] section:
  -15-B077         -1               -15-B003         3.983726 0.000000 651.800000 0.000000 0.000000                 

  
  ERROR 209: undefined object -1 at line 192 of [SUBCATCHMENT] section:
  -16-B001         -1               -16-B001         3.818756 0.000000 638.200000 0.000000 0.000000                 

  
  ERROR 209: undefined object -1 at line 194 of [SUBCATCHMENT] section:
  -16-B009         -1               -16-B009         2.575434 0.000000 524.100000 0.000000 0.000000                 

  
  ERROR 209: undefined object -1 at line 196 of [SUBCATCHMENT] section:
  -1A009           -1               -1A009           2.482924 0.000000 535.600000 0.000000 0.000000                 

  
  ERROR 209: undefined object -1 at line 198 of [SUBCATCHMENT] section:
  -1A030           -1               -1A030           3.642006 0.000000 648.700000 0.000000 0.000000                 

  
  ERROR 209: undefined object -1 at line 200 of [SUBCATCHMENT] section:
  -1B005           -1               -1A037           2.365924 0.000000 522.800000 0.000000 0.000000                 

  
  ERROR 209: undefined object -1 at line 202 of [SUBCATCHMENT] section:
  -1C016           -1               -1C016           12.092969 0.000000 639.500000 0.000000 0.000000                 

  
  ERROR 209: undefined object -1 at line 204 of [SUBCATCHMENT] section:
  -1C043           -1               -1C043           16.897356 0.000000 755.900000 0.000000 0.000000                 

  
  ERROR 209: undefined object -1 at line 206 of [SUBCATCHMENT] section:
  -1C091           -1               -1C091           15.095813 0.000000 714.500000 0.000000 0.000000                 

  
  ERROR 209: undefined object -1 at line 208 of [SUBCATCHMENT] section:
  -1D013           -1               -1D013           9.660845 0.000000 571.600000 0.000000 0.000000                 

  
  ERROR 209: undefined object -1 at line 210 of [SUBCATCHMENT] section:
  -1D038           -1               -1D038           9.577615 0.000000 569.100000 0.000000 0.000000                 

  
  ERROR 209: undefined object -1 at line 212 of [SUBCATCHMENT] section:
  -1D070           -1               -1D070           14.031862 0.000000 688.900000 0.000000 0.000000                 

  
  ERROR 209: undefined object -1 at line 214 of [SUBCATCHMENT] section:
  -1D103           -1               -1D103           8.251673 0.000000 528.300000 0.000000 0.000000                 

  
  ERROR 209: undefined object -1 at line 216 of [SUBCATCHMENT] section:
  -1D121           -1               -1D121           12.479599 0.000000 649.600000 0.000000 0.000000                 

  
  ERROR 209: undefined object -1 at line 218 of [SUBCATCHMENT] section:
  -1D125           -1               -1D125           10.893307 0.000000 607.000000 0.000000 0.000000                 

  
  ERROR 209: undefined object -1 at line 220 of [SUBCATCHMENT] section:
  -1E014           -1               -1E014           10.014265 0.000000 582.000000 0.000000 0.000000                 

  
  ERROR 209: undefined object -1 at line 222 of [SUBCATCHMENT] section:
  -1E023           -1               -1E023           9.685855 0.000000 572.300000 0.000000 0.000000                 

  
  ERROR 209: undefined object -1 at line 224 of [SUBCATCHMENT] section:
  -1E035           -1               -1E035           8.869544 0.000000 547.700000 0.000000 0.000000                 

  
  ERROR 209: undefined object -1 at line 226 of [SUBCATCHMENT] section:
  -1E044           -1               -1E044           5.635409 0.000000 286.800000 0.000000 0.000000                 

  
  ERROR 209: undefined object -1 at line 228 of [SUBCATCHMENT] section:
  -1E063           -1               -1E063           16.018025 0.000000 745.200000 0.000000 0.000000                 

  
  ERROR 209: undefined object -1 at line 230 of [SUBCATCHMENT] section:
  -1E810           -1               -1E810           3.251605 0.000000 335.700000 0.000000 0.000000                 

  
  ERROR 209: undefined object -1 at line 232 of [SUBCATCHMENT] section:
  -1F009           -1               -1F009           2.114403 0.000000 270.700000 0.000000 0.000000                 

  
  ERROR 209: undefined object -1 at line 234 of [SUBCATCHMENT] section:
  -1F020           -1               -1F020           3.341205 0.000000 340.300000 0.000000 0.000000                 

  
  ERROR 209: undefined object -1 at line 236 of [SUBCATCHMENT] section:
  -1F027           -1               -1F027           8.603213 0.000000 546.100000 0.000000 0.000000                 

  
  ERROR 209: undefined object -1 at line 238 of [SUBCATCHMENT] section:
  -1F041           -1               -1F041           3.856056 0.000000 237.200000 0.000000 0.000000                 

  
  ERROR 209: undefined object -1 at line 240 of [SUBCATCHMENT] section:
  -1F055           -1               -1F055           18.873679 0.000000 524.900000 0.000000 0.000000                 

  
  ERROR 209: undefined object -1 at line 242 of [SUBCATCHMENT] section:
  -1F080           -1               -1F080           9.217864 0.000000 366.800000 0.000000 0.000000                 

  
  ERROR 209: undefined object -1 at line 244 of [SUBCATCHMENT] section:
  -1F800           -1               -1F800           2.093203 0.000000 269.400000 0.000000 0.000000                 

  
  ERROR 209: undefined object -1 at line 246 of [SUBCATCHMENT] section:
  -1F801           -1               -1F801           1.216402 0.000000 205.400000 0.000000 0.000000                 

  
  ERROR 209: undefined object -1 at line 248 of [SUBCATCHMENT] section:
  -1F803           -1               -1F803           0.732401 0.000000 159.300000 0.000000 0.000000                 

  
  ERROR 209: undefined object -1 at line 250 of [SUBCATCHMENT] section:
  -1F806           -1               -1F806           3.328565 0.000000 292.300000 0.000000 0.000000                 

  
  Maximum error count exceeded.

  Analysis begun on:  Wed Jun 24 12:02:31 2026
  Analysis ended on:  Wed Jun 24 12:02:31 2026
  Total elapsed time: < 1 sec