
  EPA STORM WATER MANAGEMENT MODEL - VERSION 5.2 (Build 5.2.4)
  ------------------------------------------------------------

  
  ERROR 361: could not open external file used for Time Series PG009-TS.
  
  ERROR 361: could not open external file used for Time Series River-PE.
  
  ERROR 361: could not open external file used for Time Series River-SM.
  
  ERROR 361: could not open external file used for Time Series River-MC.
  
  ERROR 361: could not open external file used for Time Series River-PU.
  
  ERROR 361: could not open external file used for Time Series River-LY.
  
  ERROR 361: could not open external file used for Time Series River-LA.
  
  ERROR 361: could not open external file used for Time Series River-GLD.
  
  ERROR 361: could not open external file used for Time Series River-WC.
  
  ERROR 361: could not open external file used for Time Series River-TI.
  WARNING 02: maximum depth increased for Node Ditch5

  Analysis begun on:  Wed Jun 24 12:02:33 2026
  Analysis ended on:  Wed Jun 24 12:02:33 2026
  Total elapsed time: < 1 sec