
  EPA STORM WATER MANAGEMENT MODEL - VERSION 5.2 (Build 5.2.4)
  ------------------------------------------------------------

  WARNING 04: minimum elevation drop used for Conduit CDT-101
  WARNING 04: minimum elevation drop used for Conduit CDT-103
  WARNING 04: minimum elevation drop used for Conduit CDT-105
  WARNING 04: minimum elevation drop used for Conduit CDT-107
  WARNING 04: minimum elevation drop used for Conduit CDT-109
  WARNING 04: minimum elevation drop used for Conduit CDT-11
  WARNING 04: minimum elevation drop used for Conduit CDT-111
  WARNING 04: minimum elevation drop used for Conduit CDT-113
  WARNING 04: minimum elevation drop used for Conduit CDT-115
  WARNING 04: minimum elevation drop used for Conduit CDT-117
  WARNING 04: minimum elevation drop used for Conduit CDT-119
  WARNING 04: minimum elevation drop used for Conduit CDT-121
  WARNING 04: minimum elevation drop used for Conduit CDT-123
  WARNING 04: minimum elevation drop used for Conduit CDT-125
  WARNING 04: minimum elevation drop used for Conduit CDT-127
  WARNING 04: minimum elevation drop used for Conduit CDT-129
  WARNING 04: minimum elevation drop used for Conduit CDT-13
  WARNING 04: minimum elevation drop used for Conduit CDT-131
  WARNING 04: minimum elevation drop used for Conduit CDT-133
  WARNING 04: minimum elevation drop used for Conduit CDT-135
  WARNING 04: minimum elevation drop used for Conduit CDT-137
  WARNING 04: minimum elevation drop used for Conduit CDT-139
  WARNING 04: minimum elevation drop used for Conduit CDT-141
  WARNING 04: minimum elevation drop used for Conduit CDT-143
  WARNING 04: minimum elevation drop used for Conduit CDT-145
  WARNING 04: minimum elevation drop used for Conduit CDT-147
  WARNING 04: minimum elevation drop used for Conduit CDT-149
  WARNING 04: minimum elevation drop used for Conduit CDT-15
  WARNING 04: minimum elevation drop used for Conduit CDT-151
  WARNING 04: minimum elevation drop used for Conduit CDT-153
  WARNING 04: minimum elevation drop used for Conduit CDT-155
  WARNING 04: minimum elevation drop used for Conduit CDT-157
  WARNING 04: minimum elevation drop used for Conduit CDT-159
  WARNING 04: minimum elevation drop used for Conduit CDT-161
  WARNING 04: minimum elevation drop used for Conduit CDT-163
  WARNING 04: minimum elevation drop used for Conduit CDT-165
  WARNING 04: minimum elevation drop used for Conduit CDT-167
  WARNING 04: minimum elevation drop used for Conduit CDT-169
  WARNING 04: minimum elevation drop used for Conduit CDT-17
  WARNING 04: minimum elevation drop used for Conduit CDT-171
  WARNING 04: minimum elevation drop used for Conduit CDT-173
  WARNING 04: minimum elevation drop used for Conduit CDT-175
  WARNING 04: minimum elevation drop used for Conduit CDT-177
  WARNING 04: minimum elevation drop used for Conduit CDT-179
  WARNING 04: minimum elevation drop used for Conduit CDT-181
  WARNING 04: minimum elevation drop used for Conduit CDT-183
  WARNING 04: minimum elevation drop used for Conduit CDT-185
  WARNING 04: minimum elevation drop used for Conduit CDT-187
  WARNING 04: minimum elevation drop used for Conduit CDT-189
  WARNING 04: minimum elevation drop used for Conduit CDT-191
  WARNING 04: minimum elevation drop used for Conduit CDT-193
  WARNING 04: minimum elevation drop used for Conduit CDT-195
  WARNING 04: minimum elevation drop used for Conduit CDT-197
  WARNING 04: minimum elevation drop used for Conduit CDT-199
  WARNING 04: minimum elevation drop used for Conduit CDT-201
  WARNING 04: minimum elevation drop used for Conduit CDT-203
  WARNING 04: minimum elevation drop used for Conduit CDT-205
  WARNING 04: minimum elevation drop used for Conduit CDT-207
  WARNING 04: minimum elevation drop used for Conduit CDT-209
  WARNING 04: minimum elevation drop used for Conduit CDT-211
  WARNING 04: minimum elevation drop used for Conduit CDT-213
  WARNING 04: minimum elevation drop used for Conduit CDT-215
  WARNING 04: minimum elevation drop used for Conduit CDT-217
  WARNING 04: minimum elevation drop used for Conduit CDT-219
  WARNING 04: minimum elevation drop used for Conduit CDT-221
  WARNING 04: minimum elevation drop used for Conduit CDT-223
  WARNING 04: minimum elevation drop used for Conduit CDT-225
  WARNING 04: minimum elevation drop used for Conduit CDT-227
  WARNING 04: minimum elevation drop used for Conduit CDT-229
  WARNING 04: minimum elevation drop used for Conduit CDT-231
  WARNING 04: minimum elevation drop used for Conduit CDT-233
  WARNING 04: minimum elevation drop used for Conduit CDT-235
  WARNING 04: minimum elevation drop used for Conduit CDT-237
  WARNING 04: minimum elevation drop used for Conduit CDT-239
  WARNING 04: minimum elevation drop used for Conduit CDT-241
  WARNING 04: minimum elevation drop used for Conduit CDT-243
  WARNING 04: minimum elevation drop used for Conduit CDT-245
  WARNING 04: minimum elevation drop used for Conduit CDT-247
  WARNING 04: minimum elevation drop used for Conduit CDT-249
  WARNING 04: minimum elevation drop used for Conduit CDT-251
  WARNING 04: minimum elevation drop used for Conduit CDT-253
  WARNING 04: minimum elevation drop used for Conduit CDT-255
  WARNING 04: minimum elevation drop used for Conduit CDT-257
  WARNING 04: minimum elevation drop used for Conduit CDT-259
  WARNING 04: minimum elevation drop used for Conduit CDT-261
  WARNING 04: minimum elevation drop used for Conduit CDT-263
  WARNING 04: minimum elevation drop used for Conduit CDT-265
  WARNING 04: minimum elevation drop used for Conduit CDT-267
  WARNING 04: minimum elevation drop used for Conduit CDT-269
  WARNING 04: minimum elevation drop used for Conduit CDT-273
  WARNING 04: minimum elevation drop used for Conduit CDT-275
  WARNING 04: minimum elevation drop used for Conduit CDT-279
  WARNING 04: minimum elevation drop used for Conduit CDT-281
  WARNING 04: minimum elevation drop used for Conduit CDT-285
  WARNING 04: minimum elevation drop used for Conduit CDT-287
  WARNING 04: minimum elevation drop used for Conduit CDT-289
  WARNING 04: minimum elevation drop used for Conduit CDT-291
  WARNING 04: minimum elevation drop used for Conduit CDT-323
  WARNING 04: minimum elevation drop used for Conduit CDT-325
  WARNING 04: minimum elevation drop used for Conduit CDT-327
  WARNING 04: minimum elevation drop used for Conduit CDT-329
  WARNING 04: minimum elevation drop used for Conduit CDT-331
  WARNING 04: minimum elevation drop used for Conduit CDT-333
  WARNING 04: minimum elevation drop used for Conduit CDT-335
  WARNING 04: minimum elevation drop used for Conduit CDT-341
  WARNING 04: minimum elevation drop used for Conduit CDT-347
  WARNING 04: minimum elevation drop used for Conduit CDT-349
  WARNING 04: minimum elevation drop used for Conduit CDT-357
  WARNING 04: minimum elevation drop used for Conduit CDT-365
  WARNING 04: minimum elevation drop used for Conduit CDT-373
  WARNING 04: minimum elevation drop used for Conduit CDT-389
  WARNING 04: minimum elevation drop used for Conduit CDT-391
  WARNING 04: minimum elevation drop used for Conduit CDT-393
  WARNING 04: minimum elevation drop used for Conduit CDT-445
  WARNING 04: minimum elevation drop used for Conduit CDT-447
  WARNING 04: minimum elevation drop used for Conduit CDT-461
  WARNING 04: minimum elevation drop used for Conduit CDT-463
  WARNING 04: minimum elevation drop used for Conduit CDT-473
  WARNING 04: minimum elevation drop used for Conduit CDT-477
  WARNING 04: minimum elevation drop used for Conduit CDT-481
  WARNING 04: minimum elevation drop used for Conduit CDT-485
  WARNING 04: minimum elevation drop used for Conduit CDT-487
  WARNING 04: minimum elevation drop used for Conduit CDT-489
  WARNING 08: elevation drop exceeds length for Conduit CDT-49
  WARNING 04: minimum elevation drop used for Conduit CDT-491
  WARNING 04: minimum elevation drop used for Conduit CDT-493
  WARNING 04: minimum elevation drop used for Conduit CDT-495
  WARNING 04: minimum elevation drop used for Conduit CDT-497
  WARNING 04: minimum elevation drop used for Conduit CDT-499
  WARNING 04: minimum elevation drop used for Conduit CDT-501
  WARNING 04: minimum elevation drop used for Conduit CDT-505
  WARNING 04: minimum elevation drop used for Conduit CDT-509
  WARNING 08: elevation drop exceeds length for Conduit CDT-51
  WARNING 04: minimum elevation drop used for Conduit CDT-519
  WARNING 04: minimum elevation drop used for Conduit CDT-527
  WARNING 04: minimum elevation drop used for Conduit CDT-529
  WARNING 04: minimum elevation drop used for Conduit CDT-531
  WARNING 04: minimum elevation drop used for Conduit CDT-533
  WARNING 04: minimum elevation drop used for Conduit CDT-535
  WARNING 04: minimum elevation drop used for Conduit CDT-537
  WARNING 04: minimum elevation drop used for Conduit CDT-539
  WARNING 04: minimum elevation drop used for Conduit CDT-541
  WARNING 04: minimum elevation drop used for Conduit CDT-559
  WARNING 04: minimum elevation drop used for Conduit CDT-561
  WARNING 04: minimum elevation drop used for Conduit CDT-563
  WARNING 04: minimum elevation drop used for Conduit CDT-565
  WARNING 04: minimum elevation drop used for Conduit CDT-567
  WARNING 04: minimum elevation drop used for Conduit CDT-569
  WARNING 04: minimum elevation drop used for Conduit CDT-573
  WARNING 04: minimum elevation drop used for Conduit CDT-575
  WARNING 04: minimum elevation drop used for Conduit CDT-577
  WARNING 04: minimum elevation drop used for Conduit CDT-579
  WARNING 04: minimum elevation drop used for Conduit CDT-581
  WARNING 04: minimum elevation drop used for Conduit CDT-583
  WARNING 04: minimum elevation drop used for Conduit CDT-585
  WARNING 04: minimum elevation drop used for Conduit CDT-589
  WARNING 08: elevation drop exceeds length for Conduit CDT-599
  WARNING 04: minimum elevation drop used for Conduit CDT-609
  WARNING 04: minimum elevation drop used for Conduit CDT-615
  WARNING 04: minimum elevation drop used for Conduit CDT-617
  WARNING 04: minimum elevation drop used for Conduit CDT-621
  WARNING 04: minimum elevation drop used for Conduit CDT-629
  WARNING 04: minimum elevation drop used for Conduit CDT-63
  WARNING 04: minimum elevation drop used for Conduit CDT-631
  WARNING 04: minimum elevation drop used for Conduit CDT-65
  WARNING 04: minimum elevation drop used for Conduit CDT-67
  WARNING 04: minimum elevation drop used for Conduit CDT-69
  WARNING 04: minimum elevation drop used for Conduit CDT-71
  WARNING 04: minimum elevation drop used for Conduit CDT-73
  WARNING 04: minimum elevation drop used for Conduit CDT-75
  WARNING 04: minimum elevation drop used for Conduit CDT-77
  WARNING 04: minimum elevation drop used for Conduit CDT-79
  WARNING 04: minimum elevation drop used for Conduit CDT-81
  WARNING 04: minimum elevation drop used for Conduit CDT-83
  WARNING 04: minimum elevation drop used for Conduit CDT-85
  WARNING 04: minimum elevation drop used for Conduit CDT-87
  WARNING 04: minimum elevation drop used for Conduit CDT-89
  WARNING 04: minimum elevation drop used for Conduit CDT-91
  WARNING 04: minimum elevation drop used for Conduit CDT-93
  WARNING 04: minimum elevation drop used for Conduit CDT-95
  WARNING 04: minimum elevation drop used for Conduit CDT-97
  WARNING 04: minimum elevation drop used for Conduit CDT-99
  WARNING 04: minimum elevation drop used for Conduit CULVERT_100
  WARNING 04: minimum elevation drop used for Conduit CULVERT_104
  WARNING 04: minimum elevation drop used for Conduit CULVERT_106
  WARNING 04: minimum elevation drop used for Conduit CULVERT_110
  WARNING 04: minimum elevation drop used for Conduit CULVERT_112
  WARNING 04: minimum elevation drop used for Conduit CULVERT_114
  WARNING 04: minimum elevation drop used for Conduit CULVERT_115
  WARNING 04: minimum elevation drop used for Conduit CULVERT_116
  WARNING 04: minimum elevation drop used for Conduit CULVERT_118
  WARNING 04: minimum elevation drop used for Conduit CULVERT_119
  WARNING 04: minimum elevation drop used for Conduit CULVERT_12
  WARNING 04: minimum elevation drop used for Conduit CULVERT_122
  WARNING 04: minimum elevation drop used for Conduit CULVERT_123
  WARNING 04: minimum elevation drop used for Conduit CULVERT_124
  WARNING 04: minimum elevation drop used for Conduit CULVERT_125
  WARNING 04: minimum elevation drop used for Conduit CULVERT_126
  WARNING 04: minimum elevation drop used for Conduit CULVERT_127
  WARNING 04: minimum elevation drop used for Conduit CULVERT_128
  WARNING 04: minimum elevation drop used for Conduit CULVERT_129
  WARNING 04: minimum elevation drop used for Conduit CULVERT_133
  WARNING 04: minimum elevation drop used for Conduit CULVERT_134
  WARNING 04: minimum elevation drop used for Conduit CULVERT_135
  WARNING 04: minimum elevation drop used for Conduit CULVERT_136
  WARNING 04: minimum elevation drop used for Conduit CULVERT_137
  WARNING 04: minimum elevation drop used for Conduit CULVERT_138
  WARNING 04: minimum elevation drop used for Conduit CULVERT_140
  WARNING 04: minimum elevation drop used for Conduit CULVERT_141
  WARNING 04: minimum elevation drop used for Conduit CULVERT_144
  WARNING 04: minimum elevation drop used for Conduit CULVERT_146
  WARNING 04: minimum elevation drop used for Conduit CULVERT_147
  WARNING 04: minimum elevation drop used for Conduit CULVERT_149
  WARNING 04: minimum elevation drop used for Conduit CULVERT_15
  WARNING 04: minimum elevation drop used for Conduit CULVERT_152
  WARNING 04: minimum elevation drop used for Conduit CULVERT_153
  WARNING 04: minimum elevation drop used for Conduit CULVERT_154
  WARNING 04: minimum elevation drop used for Conduit CULVERT_155
  WARNING 04: minimum elevation drop used for Conduit CULVERT_157
  WARNING 04: minimum elevation drop used for Conduit CULVERT_158
  WARNING 04: minimum elevation drop used for Conduit CULVERT_159
  WARNING 04: minimum elevation drop used for Conduit CULVERT_16
  WARNING 04: minimum elevation drop used for Conduit CULVERT_161
  WARNING 04: minimum elevation drop used for Conduit CULVERT_162
  WARNING 04: minimum elevation drop used for Conduit CULVERT_1632
  WARNING 04: minimum elevation drop used for Conduit CULVERT_1633
  WARNING 04: minimum elevation drop used for Conduit CULVERT_1635
  WARNING 04: minimum elevation drop used for Conduit CULVERT_165
  WARNING 04: minimum elevation drop used for Conduit CULVERT_166
  WARNING 04: minimum elevation drop used for Conduit CULVERT_167
  WARNING 04: minimum elevation drop used for Conduit CULVERT_168
  WARNING 04: minimum elevation drop used for Conduit CULVERT_169
  WARNING 04: minimum elevation drop used for Conduit CULVERT_17
  WARNING 04: minimum elevation drop used for Conduit CULVERT_170
  WARNING 04: minimum elevation drop used for Conduit CULVERT_173
  WARNING 04: minimum elevation drop used for Conduit CULVERT_174
  WARNING 04: minimum elevation drop used for Conduit CULVERT_177
  WARNING 04: minimum elevation drop used for Conduit CULVERT_179
  WARNING 04: minimum elevation drop used for Conduit CULVERT_18
  WARNING 04: minimum elevation drop used for Conduit CULVERT_181
  WARNING 04: minimum elevation drop used for Conduit CULVERT_183
  WARNING 04: minimum elevation drop used for Conduit CULVERT_184
  WARNING 04: minimum elevation drop used for Conduit CULVERT_185
  WARNING 04: minimum elevation drop used for Conduit CULVERT_186
  WARNING 04: minimum elevation drop used for Conduit CULVERT_187
  WARNING 04: minimum elevation drop used for Conduit CULVERT_188
  WARNING 04: minimum elevation drop used for Conduit CULVERT_189
  WARNING 04: minimum elevation drop used for Conduit CULVERT_191
  WARNING 04: minimum elevation drop used for Conduit CULVERT_1927
  WARNING 04: minimum elevation drop used for Conduit CULVERT_1929
  WARNING 04: minimum elevation drop used for Conduit CULVERT_193
  WARNING 04: minimum elevation drop used for Conduit CULVERT_1930
  WARNING 04: minimum elevation drop used for Conduit CULVERT_1931
  WARNING 04: minimum elevation drop used for Conduit CULVERT_1932
  WARNING 04: minimum elevation drop used for Conduit CULVERT_1933
  WARNING 04: minimum elevation drop used for Conduit CULVERT_1934
  WARNING 04: minimum elevation drop used for Conduit CULVERT_1935
  WARNING 04: minimum elevation drop used for Conduit CULVERT_1936
  WARNING 04: minimum elevation drop used for Conduit CULVERT_1938
  WARNING 04: minimum elevation drop used for Conduit CULVERT_194
  WARNING 04: minimum elevation drop used for Conduit CULVERT_197
  WARNING 04: minimum elevation drop used for Conduit CULVERT_198
  WARNING 04: minimum elevation drop used for Conduit CULVERT_199
  WARNING 04: minimum elevation drop used for Conduit CULVERT_200
  WARNING 04: minimum elevation drop used for Conduit CULVERT_201
  WARNING 04: minimum elevation drop used for Conduit CULVERT_204
  WARNING 04: minimum elevation drop used for Conduit CULVERT_206
  WARNING 04: minimum elevation drop used for Conduit CULVERT_208
  WARNING 04: minimum elevation drop used for Conduit CULVERT_209
  WARNING 04: minimum elevation drop used for Conduit CULVERT_210
  WARNING 04: minimum elevation drop used for Conduit CULVERT_211
  WARNING 04: minimum elevation drop used for Conduit CULVERT_213
  WARNING 04: minimum elevation drop used for Conduit CULVERT_214
  WARNING 04: minimum elevation drop used for Conduit CULVERT_215
  WARNING 04: minimum elevation drop used for Conduit CULVERT_216
  WARNING 04: minimum elevation drop used for Conduit CULVERT_218
  WARNING 04: minimum elevation drop used for Conduit CULVERT_219
  WARNING 04: minimum elevation drop used for Conduit CULVERT_220
  WARNING 04: minimum elevation drop used for Conduit CULVERT_222
  WARNING 04: minimum elevation drop used for Conduit CULVERT_224
  WARNING 04: minimum elevation drop used for Conduit CULVERT_228
  WARNING 04: minimum elevation drop used for Conduit CULVERT_230
  WARNING 04: minimum elevation drop used for Conduit CULVERT_231
  WARNING 04: minimum elevation drop used for Conduit CULVERT_232
  WARNING 04: minimum elevation drop used for Conduit CULVERT_233
  WARNING 04: minimum elevation drop used for Conduit CULVERT_236
  WARNING 04: minimum elevation drop used for Conduit CULVERT_237
  WARNING 04: minimum elevation drop used for Conduit CULVERT_238
  WARNING 04: minimum elevation drop used for Conduit CULVERT_239
  WARNING 04: minimum elevation drop used for Conduit CULVERT_240
  WARNING 04: minimum elevation drop used for Conduit CULVERT_241
  WARNING 04: minimum elevation drop used for Conduit CULVERT_242
  WARNING 04: minimum elevation drop used for Conduit CULVERT_246
  WARNING 04: minimum elevation drop used for Conduit CULVERT_247
  WARNING 04: minimum elevation drop used for Conduit CULVERT_248
  WARNING 04: minimum elevation drop used for Conduit CULVERT_249
  WARNING 04: minimum elevation drop used for Conduit CULVERT_252
  WARNING 04: minimum elevation drop used for Conduit CULVERT_254
  WARNING 04: minimum elevation drop used for Conduit CULVERT_255
  WARNING 04: minimum elevation drop used for Conduit CULVERT_256
  WARNING 04: minimum elevation drop used for Conduit CULVERT_2566
  WARNING 04: minimum elevation drop used for Conduit CULVERT_258
  WARNING 04: minimum elevation drop used for Conduit CULVERT_260
  WARNING 04: minimum elevation drop used for Conduit CULVERT_266
  WARNING 04: minimum elevation drop used for Conduit CULVERT_267
  WARNING 04: minimum elevation drop used for Conduit CULVERT_268
  WARNING 04: minimum elevation drop used for Conduit CULVERT_269
  WARNING 04: minimum elevation drop used for Conduit CULVERT_270
  WARNING 04: minimum elevation drop used for Conduit CULVERT_271
  WARNING 04: minimum elevation drop used for Conduit CULVERT_272
  WARNING 04: minimum elevation drop used for Conduit CULVERT_273
  WARNING 04: minimum elevation drop used for Conduit CULVERT_277
  WARNING 04: minimum elevation drop used for Conduit CULVERT_282
  WARNING 04: minimum elevation drop used for Conduit CULVERT_283
  WARNING 04: minimum elevation drop used for Conduit CULVERT_285
  WARNING 04: minimum elevation drop used for Conduit CULVERT_287
  WARNING 04: minimum elevation drop used for Conduit CULVERT_288
  WARNING 04: minimum elevation drop used for Conduit CULVERT_2888
  WARNING 04: minimum elevation drop used for Conduit CULVERT_2889
  WARNING 04: minimum elevation drop used for Conduit CULVERT_2890
  WARNING 04: minimum elevation drop used for Conduit CULVERT_290
  WARNING 04: minimum elevation drop used for Conduit CULVERT_291
  WARNING 04: minimum elevation drop used for Conduit CULVERT_292
  WARNING 04: minimum elevation drop used for Conduit CULVERT_296
  WARNING 04: minimum elevation drop used for Conduit CULVERT_297
  WARNING 04: minimum elevation drop used for Conduit CULVERT_298
  WARNING 04: minimum elevation drop used for Conduit CULVERT_303
  WARNING 04: minimum elevation drop used for Conduit CULVERT_304
  WARNING 04: minimum elevation drop used for Conduit CULVERT_305
  WARNING 04: minimum elevation drop used for Conduit CULVERT_306
  WARNING 04: minimum elevation drop used for Conduit CULVERT_307
  WARNING 04: minimum elevation drop used for Conduit CULVERT_310
  WARNING 04: minimum elevation drop used for Conduit CULVERT_311
  WARNING 04: minimum elevation drop used for Conduit CULVERT_313
  WARNING 04: minimum elevation drop used for Conduit CULVERT_314
  WARNING 04: minimum elevation drop used for Conduit CULVERT_315
  WARNING 04: minimum elevation drop used for Conduit CULVERT_316
  WARNING 04: minimum elevation drop used for Conduit CULVERT_317
  WARNING 04: minimum elevation drop used for Conduit CULVERT_318
  WARNING 04: minimum elevation drop used for Conduit CULVERT_319
  WARNING 04: minimum elevation drop used for Conduit CULVERT_32
  WARNING 04: minimum elevation drop used for Conduit CULVERT_320
  WARNING 04: minimum elevation drop used for Conduit CULVERT_3210
  WARNING 04: minimum elevation drop used for Conduit CULVERT_322
  WARNING 04: minimum elevation drop used for Conduit CULVERT_324
  WARNING 04: minimum elevation drop used for Conduit CULVERT_325
  WARNING 04: minimum elevation drop used for Conduit CULVERT_327
  WARNING 04: minimum elevation drop used for Conduit CULVERT_333
  WARNING 04: minimum elevation drop used for Conduit CULVERT_334
  WARNING 04: minimum elevation drop used for Conduit CULVERT_335
  WARNING 04: minimum elevation drop used for Conduit CULVERT_337
  WARNING 04: minimum elevation drop used for Conduit CULVERT_338
  WARNING 04: minimum elevation drop used for Conduit CULVERT_34
  WARNING 04: minimum elevation drop used for Conduit CULVERT_340
  WARNING 04: minimum elevation drop used for Conduit CULVERT_342
  WARNING 04: minimum elevation drop used for Conduit CULVERT_343
  WARNING 04: minimum elevation drop used for Conduit CULVERT_344
  WARNING 04: minimum elevation drop used for Conduit CULVERT_347
  WARNING 04: minimum elevation drop used for Conduit CULVERT_348
  WARNING 04: minimum elevation drop used for Conduit CULVERT_35
  WARNING 04: minimum elevation drop used for Conduit CULVERT_351
  WARNING 04: minimum elevation drop used for Conduit CULVERT_3527
  WARNING 04: minimum elevation drop used for Conduit CULVERT_3531
  WARNING 04: minimum elevation drop used for Conduit CULVERT_354
  WARNING 04: minimum elevation drop used for Conduit CULVERT_355
  WARNING 04: minimum elevation drop used for Conduit CULVERT_356
  WARNING 04: minimum elevation drop used for Conduit CULVERT_358
  WARNING 04: minimum elevation drop used for Conduit CULVERT_36
  WARNING 04: minimum elevation drop used for Conduit CULVERT_360
  WARNING 04: minimum elevation drop used for Conduit CULVERT_365
  WARNING 04: minimum elevation drop used for Conduit CULVERT_368
  WARNING 04: minimum elevation drop used for Conduit CULVERT_369
  WARNING 04: minimum elevation drop used for Conduit CULVERT_37
  WARNING 04: minimum elevation drop used for Conduit CULVERT_372
  WARNING 04: minimum elevation drop used for Conduit CULVERT_373
  WARNING 04: minimum elevation drop used for Conduit CULVERT_374
  WARNING 04: minimum elevation drop used for Conduit CULVERT_377
  WARNING 04: minimum elevation drop used for Conduit CULVERT_378
  WARNING 04: minimum elevation drop used for Conduit CULVERT_385
  WARNING 04: minimum elevation drop used for Conduit CULVERT_386
  WARNING 04: minimum elevation drop used for Conduit CULVERT_389
  WARNING 04: minimum elevation drop used for Conduit CULVERT_39
  WARNING 04: minimum elevation drop used for Conduit CULVERT_391
  WARNING 04: minimum elevation drop used for Conduit CULVERT_392
  WARNING 04: minimum elevation drop used for Conduit CULVERT_393
  WARNING 04: minimum elevation drop used for Conduit CULVERT_398
  WARNING 04: minimum elevation drop used for Conduit CULVERT_399
  WARNING 04: minimum elevation drop used for Conduit CULVERT_400
  WARNING 04: minimum elevation drop used for Conduit CULVERT_401
  WARNING 04: minimum elevation drop used for Conduit CULVERT_403
  WARNING 04: minimum elevation drop used for Conduit CULVERT_404
  WARNING 04: minimum elevation drop used for Conduit CULVERT_405
  WARNING 04: minimum elevation drop used for Conduit CULVERT_406
  WARNING 04: minimum elevation drop used for Conduit CULVERT_407
  WARNING 04: minimum elevation drop used for Conduit CULVERT_410
  WARNING 04: minimum elevation drop used for Conduit CULVERT_412
  WARNING 04: minimum elevation drop used for Conduit CULVERT_413
  WARNING 04: minimum elevation drop used for Conduit CULVERT_414
  WARNING 04: minimum elevation drop used for Conduit CULVERT_416
  WARNING 04: minimum elevation drop used for Conduit CULVERT_418
  WARNING 04: minimum elevation drop used for Conduit CULVERT_419
  WARNING 04: minimum elevation drop used for Conduit CULVERT_42
  WARNING 04: minimum elevation drop used for Conduit CULVERT_421
  WARNING 04: minimum elevation drop used for Conduit CULVERT_424
  WARNING 04: minimum elevation drop used for Conduit CULVERT_425
  WARNING 04: minimum elevation drop used for Conduit CULVERT_428
  WARNING 04: minimum elevation drop used for Conduit CULVERT_429
  WARNING 04: minimum elevation drop used for Conduit CULVERT_43
  WARNING 04: minimum elevation drop used for Conduit CULVERT_430
  WARNING 04: minimum elevation drop used for Conduit CULVERT_431
  WARNING 04: minimum elevation drop used for Conduit CULVERT_436
  WARNING 04: minimum elevation drop used for Conduit CULVERT_44
  WARNING 04: minimum elevation drop used for Conduit CULVERT_440
  WARNING 04: minimum elevation drop used for Conduit CULVERT_441
  WARNING 04: minimum elevation drop used for Conduit CULVERT_442
  WARNING 04: minimum elevation drop used for Conduit CULVERT_443
  WARNING 04: minimum elevation drop used for Conduit CULVERT_444
  WARNING 04: minimum elevation drop used for Conduit CULVERT_445
  WARNING 04: minimum elevation drop used for Conduit CULVERT_446
  WARNING 04: minimum elevation drop used for Conduit CULVERT_447
  WARNING 04: minimum elevation drop used for Conduit CULVERT_448
  WARNING 04: minimum elevation drop used for Conduit CULVERT_45
  WARNING 04: minimum elevation drop used for Conduit CULVERT_452
  WARNING 04: minimum elevation drop used for Conduit CULVERT_453
  WARNING 04: minimum elevation drop used for Conduit CULVERT_454
  WARNING 04: minimum elevation drop used for Conduit CULVERT_455
  WARNING 04: minimum elevation drop used for Conduit CULVERT_456
  WARNING 04: minimum elevation drop used for Conduit CULVERT_457
  WARNING 04: minimum elevation drop used for Conduit CULVERT_458
  WARNING 04: minimum elevation drop used for Conduit CULVERT_459
  WARNING 04: minimum elevation drop used for Conduit CULVERT_46
  WARNING 04: minimum elevation drop used for Conduit CULVERT_460
  WARNING 04: minimum elevation drop used for Conduit CULVERT_463
  WARNING 04: minimum elevation drop used for Conduit CULVERT_465
  WARNING 04: minimum elevation drop used for Conduit CULVERT_472
  WARNING 04: minimum elevation drop used for Conduit CULVERT_479
  WARNING 04: minimum elevation drop used for Conduit CULVERT_48
  WARNING 04: minimum elevation drop used for Conduit CULVERT_480
  WARNING 04: minimum elevation drop used for Conduit CULVERT_481
  WARNING 04: minimum elevation drop used for Conduit CULVERT_483
  WARNING 04: minimum elevation drop used for Conduit CULVERT_484
  WARNING 04: minimum elevation drop used for Conduit CULVERT_485
  WARNING 04: minimum elevation drop used for Conduit CULVERT_486
  WARNING 04: minimum elevation drop used for Conduit CULVERT_487
  WARNING 04: minimum elevation drop used for Conduit CULVERT_489
  WARNING 04: minimum elevation drop used for Conduit CULVERT_49
  WARNING 04: minimum elevation drop used for Conduit CULVERT_490
  WARNING 04: minimum elevation drop used for Conduit CULVERT_491
  WARNING 04: minimum elevation drop used for Conduit CULVERT_492
  WARNING 04: minimum elevation drop used for Conduit CULVERT_493
  WARNING 04: minimum elevation drop used for Conduit CULVERT_494
  WARNING 04: minimum elevation drop used for Conduit CULVERT_495
  WARNING 04: minimum elevation drop used for Conduit CULVERT_496
  WARNING 04: minimum elevation drop used for Conduit CULVERT_497
  WARNING 04: minimum elevation drop used for Conduit CULVERT_498
  WARNING 04: minimum elevation drop used for Conduit CULVERT_499
  WARNING 04: minimum elevation drop used for Conduit CULVERT_5
  WARNING 04: minimum elevation drop used for Conduit CULVERT_500
  WARNING 04: minimum elevation drop used for Conduit CULVERT_502
  WARNING 04: minimum elevation drop used for Conduit CULVERT_503
  WARNING 04: minimum elevation drop used for Conduit CULVERT_504
  WARNING 04: minimum elevation drop used for Conduit CULVERT_505
  WARNING 04: minimum elevation drop used for Conduit CULVERT_506
  WARNING 04: minimum elevation drop used for Conduit CULVERT_507
  WARNING 04: minimum elevation drop used for Conduit CULVERT_508
  WARNING 04: minimum elevation drop used for Conduit CULVERT_509
  WARNING 04: minimum elevation drop used for Conduit CULVERT_51
  WARNING 04: minimum elevation drop used for Conduit CULVERT_510
  WARNING 04: minimum elevation drop used for Conduit CULVERT_511
  WARNING 04: minimum elevation drop used for Conduit CULVERT_512
  WARNING 04: minimum elevation drop used for Conduit CULVERT_513
  WARNING 04: minimum elevation drop used for Conduit CULVERT_518
  WARNING 04: minimum elevation drop used for Conduit CULVERT_52
  WARNING 04: minimum elevation drop used for Conduit CULVERT_520
  WARNING 04: minimum elevation drop used for Conduit CULVERT_522
  WARNING 04: minimum elevation drop used for Conduit CULVERT_525
  WARNING 04: minimum elevation drop used for Conduit CULVERT_526
  WARNING 04: minimum elevation drop used for Conduit CULVERT_527
  WARNING 04: minimum elevation drop used for Conduit CULVERT_528
  WARNING 04: minimum elevation drop used for Conduit CULVERT_529
  WARNING 04: minimum elevation drop used for Conduit CULVERT_53
  WARNING 04: minimum elevation drop used for Conduit CULVERT_531
  WARNING 04: minimum elevation drop used for Conduit CULVERT_532
  WARNING 04: minimum elevation drop used for Conduit CULVERT_533
  WARNING 04: minimum elevation drop used for Conduit CULVERT_535
  WARNING 04: minimum elevation drop used for Conduit CULVERT_536
  WARNING 04: minimum elevation drop used for Conduit CULVERT_537
  WARNING 04: minimum elevation drop used for Conduit CULVERT_538
  WARNING 04: minimum elevation drop used for Conduit CULVERT_539
  WARNING 04: minimum elevation drop used for Conduit CULVERT_54
  WARNING 04: minimum elevation drop used for Conduit CULVERT_541
  WARNING 04: minimum elevation drop used for Conduit CULVERT_542
  WARNING 04: minimum elevation drop used for Conduit CULVERT_543
  WARNING 04: minimum elevation drop used for Conduit CULVERT_544
  WARNING 04: minimum elevation drop used for Conduit CULVERT_546
  WARNING 04: minimum elevation drop used for Conduit CULVERT_547
  WARNING 04: minimum elevation drop used for Conduit CULVERT_548
  WARNING 04: minimum elevation drop used for Conduit CULVERT_549
  WARNING 04: minimum elevation drop used for Conduit CULVERT_551
  WARNING 04: minimum elevation drop used for Conduit CULVERT_553
  WARNING 04: minimum elevation drop used for Conduit CULVERT_554
  WARNING 04: minimum elevation drop used for Conduit CULVERT_556
  WARNING 04: minimum elevation drop used for Conduit CULVERT_557
  WARNING 04: minimum elevation drop used for Conduit CULVERT_558
  WARNING 04: minimum elevation drop used for Conduit CULVERT_561
  WARNING 04: minimum elevation drop used for Conduit CULVERT_562
  WARNING 04: minimum elevation drop used for Conduit CULVERT_563
  WARNING 04: minimum elevation drop used for Conduit CULVERT_565
  WARNING 04: minimum elevation drop used for Conduit CULVERT_567
  WARNING 04: minimum elevation drop used for Conduit CULVERT_568
  WARNING 04: minimum elevation drop used for Conduit CULVERT_57
  WARNING 04: minimum elevation drop used for Conduit CULVERT_571
  WARNING 04: minimum elevation drop used for Conduit CULVERT_572
  WARNING 04: minimum elevation drop used for Conduit CULVERT_573
  WARNING 04: minimum elevation drop used for Conduit CULVERT_574
  WARNING 04: minimum elevation drop used for Conduit CULVERT_575
  WARNING 04: minimum elevation drop used for Conduit CULVERT_577
  WARNING 04: minimum elevation drop used for Conduit CULVERT_578
  WARNING 04: minimum elevation drop used for Conduit CULVERT_579
  WARNING 04: minimum elevation drop used for Conduit CULVERT_58
  WARNING 04: minimum elevation drop used for Conduit CULVERT_580
  WARNING 04: minimum elevation drop used for Conduit CULVERT_581
  WARNING 04: minimum elevation drop used for Conduit CULVERT_582
  WARNING 04: minimum elevation drop used for Conduit CULVERT_584
  WARNING 04: minimum elevation drop used for Conduit CULVERT_588
  WARNING 04: minimum elevation drop used for Conduit CULVERT_589
  WARNING 04: minimum elevation drop used for Conduit CULVERT_59
  WARNING 04: minimum elevation drop used for Conduit CULVERT_590
  WARNING 04: minimum elevation drop used for Conduit CULVERT_591
  WARNING 04: minimum elevation drop used for Conduit CULVERT_592
  WARNING 04: minimum elevation drop used for Conduit CULVERT_594
  WARNING 04: minimum elevation drop used for Conduit CULVERT_599
  WARNING 04: minimum elevation drop used for Conduit CULVERT_600
  WARNING 04: minimum elevation drop used for Conduit CULVERT_601
  WARNING 04: minimum elevation drop used for Conduit CULVERT_602
  WARNING 04: minimum elevation drop used for Conduit CULVERT_603
  WARNING 04: minimum elevation drop used for Conduit CULVERT_606
  WARNING 04: minimum elevation drop used for Conduit CULVERT_608
  WARNING 04: minimum elevation drop used for Conduit CULVERT_611
  WARNING 04: minimum elevation drop used for Conduit CULVERT_613
  WARNING 04: minimum elevation drop used for Conduit CULVERT_614
  WARNING 04: minimum elevation drop used for Conduit CULVERT_618
  WARNING 04: minimum elevation drop used for Conduit CULVERT_619
  WARNING 04: minimum elevation drop used for Conduit CULVERT_62
  WARNING 04: minimum elevation drop used for Conduit CULVERT_620
  WARNING 04: minimum elevation drop used for Conduit CULVERT_622
  WARNING 04: minimum elevation drop used for Conduit CULVERT_623
  WARNING 04: minimum elevation drop used for Conduit CULVERT_625
  WARNING 04: minimum elevation drop used for Conduit CULVERT_626
  WARNING 04: minimum elevation drop used for Conduit CULVERT_627
  WARNING 04: minimum elevation drop used for Conduit CULVERT_629
  WARNING 04: minimum elevation drop used for Conduit CULVERT_63
  WARNING 04: minimum elevation drop used for Conduit CULVERT_630
  WARNING 04: minimum elevation drop used for Conduit CULVERT_631
  WARNING 04: minimum elevation drop used for Conduit CULVERT_634
  WARNING 04: minimum elevation drop used for Conduit CULVERT_635
  WARNING 04: minimum elevation drop used for Conduit CULVERT_636
  WARNING 04: minimum elevation drop used for Conduit CULVERT_638
  WARNING 04: minimum elevation drop used for Conduit CULVERT_639
  WARNING 04: minimum elevation drop used for Conduit CULVERT_64
  WARNING 04: minimum elevation drop used for Conduit CULVERT_641
  WARNING 04: minimum elevation drop used for Conduit CULVERT_643
  WARNING 04: minimum elevation drop used for Conduit CULVERT_645
  WARNING 04: minimum elevation drop used for Conduit CULVERT_646
  WARNING 04: minimum elevation drop used for Conduit CULVERT_648
  WARNING 04: minimum elevation drop used for Conduit CULVERT_65
  WARNING 04: minimum elevation drop used for Conduit CULVERT_650
  WARNING 04: minimum elevation drop used for Conduit CULVERT_651
  WARNING 04: minimum elevation drop used for Conduit CULVERT_653
  WARNING 04: minimum elevation drop used for Conduit CULVERT_654
  WARNING 04: minimum elevation drop used for Conduit CULVERT_656
  WARNING 04: minimum elevation drop used for Conduit CULVERT_657
  WARNING 04: minimum elevation drop used for Conduit CULVERT_658
  WARNING 04: minimum elevation drop used for Conduit CULVERT_659
  WARNING 04: minimum elevation drop used for Conduit CULVERT_661
  WARNING 04: minimum elevation drop used for Conduit CULVERT_668
  WARNING 04: minimum elevation drop used for Conduit CULVERT_672
  WARNING 04: minimum elevation drop used for Conduit CULVERT_675
  WARNING 04: minimum elevation drop used for Conduit CULVERT_677
  WARNING 04: minimum elevation drop used for Conduit CULVERT_678
  WARNING 04: minimum elevation drop used for Conduit CULVERT_68
  WARNING 04: minimum elevation drop used for Conduit CULVERT_683
  WARNING 04: minimum elevation drop used for Conduit CULVERT_695
  WARNING 04: minimum elevation drop used for Conduit CULVERT_697
  WARNING 04: minimum elevation drop used for Conduit CULVERT_698
  WARNING 04: minimum elevation drop used for Conduit CULVERT_699
  WARNING 04: minimum elevation drop used for Conduit CULVERT_700
  WARNING 04: minimum elevation drop used for Conduit CULVERT_701
  WARNING 04: minimum elevation drop used for Conduit CULVERT_704
  WARNING 04: minimum elevation drop used for Conduit CULVERT_705
  WARNING 04: minimum elevation drop used for Conduit CULVERT_708
  WARNING 04: minimum elevation drop used for Conduit CULVERT_709
  WARNING 04: minimum elevation drop used for Conduit CULVERT_710
  WARNING 04: minimum elevation drop used for Conduit CULVERT_711
  WARNING 04: minimum elevation drop used for Conduit CULVERT_713
  WARNING 04: minimum elevation drop used for Conduit CULVERT_718
  WARNING 04: minimum elevation drop used for Conduit CULVERT_720
  WARNING 04: minimum elevation drop used for Conduit CULVERT_723
  WARNING 04: minimum elevation drop used for Conduit CULVERT_725
  WARNING 04: minimum elevation drop used for Conduit CULVERT_726
  WARNING 04: minimum elevation drop used for Conduit CULVERT_727
  WARNING 04: minimum elevation drop used for Conduit CULVERT_73
  WARNING 04: minimum elevation drop used for Conduit CULVERT_730
  WARNING 04: minimum elevation drop used for Conduit CULVERT_731
  WARNING 04: minimum elevation drop used for Conduit CULVERT_733
  WARNING 04: minimum elevation drop used for Conduit CULVERT_734
  WARNING 04: minimum elevation drop used for Conduit CULVERT_735
  WARNING 04: minimum elevation drop used for Conduit CULVERT_738
  WARNING 04: minimum elevation drop used for Conduit CULVERT_739
  WARNING 04: minimum elevation drop used for Conduit CULVERT_740
  WARNING 04: minimum elevation drop used for Conduit CULVERT_741
  WARNING 04: minimum elevation drop used for Conduit CULVERT_743
  WARNING 04: minimum elevation drop used for Conduit CULVERT_744
  WARNING 04: minimum elevation drop used for Conduit CULVERT_745
  WARNING 04: minimum elevation drop used for Conduit CULVERT_747
  WARNING 04: minimum elevation drop used for Conduit CULVERT_748
  WARNING 04: minimum elevation drop used for Conduit CULVERT_749
  WARNING 04: minimum elevation drop used for Conduit CULVERT_751
  WARNING 04: minimum elevation drop used for Conduit CULVERT_752
  WARNING 04: minimum elevation drop used for Conduit CULVERT_753
  WARNING 04: minimum elevation drop used for Conduit CULVERT_754
  WARNING 04: minimum elevation drop used for Conduit CULVERT_755
  WARNING 04: minimum elevation drop used for Conduit CULVERT_756
  WARNING 04: minimum elevation drop used for Conduit CULVERT_757
  WARNING 04: minimum elevation drop used for Conduit CULVERT_758
  WARNING 04: minimum elevation drop used for Conduit CULVERT_76
  WARNING 04: minimum elevation drop used for Conduit CULVERT_760
  WARNING 04: minimum elevation drop used for Conduit CULVERT_761
  WARNING 04: minimum elevation drop used for Conduit CULVERT_762
  WARNING 04: minimum elevation drop used for Conduit CULVERT_763
  WARNING 04: minimum elevation drop used for Conduit CULVERT_764
  WARNING 04: minimum elevation drop used for Conduit CULVERT_765
  WARNING 04: minimum elevation drop used for Conduit CULVERT_766
  WARNING 04: minimum elevation drop used for Conduit CULVERT_767
  WARNING 04: minimum elevation drop used for Conduit CULVERT_768
  WARNING 04: minimum elevation drop used for Conduit CULVERT_77
  WARNING 04: minimum elevation drop used for Conduit CULVERT_776
  WARNING 04: minimum elevation drop used for Conduit CULVERT_777
  WARNING 04: minimum elevation drop used for Conduit CULVERT_778
  WARNING 04: minimum elevation drop used for Conduit CULVERT_78
  WARNING 04: minimum elevation drop used for Conduit CULVERT_780
  WARNING 04: minimum elevation drop used for Conduit CULVERT_781
  WARNING 04: minimum elevation drop used for Conduit CULVERT_782
  WARNING 04: minimum elevation drop used for Conduit CULVERT_783
  WARNING 04: minimum elevation drop used for Conduit CULVERT_784
  WARNING 04: minimum elevation drop used for Conduit CULVERT_786
  WARNING 04: minimum elevation drop used for Conduit CULVERT_788
  WARNING 04: minimum elevation drop used for Conduit CULVERT_789
  WARNING 04: minimum elevation drop used for Conduit CULVERT_79
  WARNING 04: minimum elevation drop used for Conduit CULVERT_790
  WARNING 04: minimum elevation drop used for Conduit CULVERT_792
  WARNING 04: minimum elevation drop used for Conduit CULVERT_793
  WARNING 04: minimum elevation drop used for Conduit CULVERT_794
  WARNING 04: minimum elevation drop used for Conduit CULVERT_80
  WARNING 04: minimum elevation drop used for Conduit CULVERT_81
  WARNING 04: minimum elevation drop used for Conduit CULVERT_82
  WARNING 04: minimum elevation drop used for Conduit CULVERT_83
  WARNING 04: minimum elevation drop used for Conduit CULVERT_84
  WARNING 04: minimum elevation drop used for Conduit CULVERT_86
  WARNING 04: minimum elevation drop used for Conduit CULVERT_87
  WARNING 04: minimum elevation drop used for Conduit CULVERT_89
  WARNING 04: minimum elevation drop used for Conduit CULVERT_90
  WARNING 04: minimum elevation drop used for Conduit CULVERT_91
  WARNING 04: minimum elevation drop used for Conduit CULVERT_92
  WARNING 04: minimum elevation drop used for Conduit CULVERT_94
  WARNING 04: minimum elevation drop used for Conduit CULVERT_96
  WARNING 04: minimum elevation drop used for Conduit CULVERT_965
  WARNING 04: minimum elevation drop used for Conduit CULVERT_968
  WARNING 04: minimum elevation drop used for Conduit CULVERT_97
  WARNING 04: minimum elevation drop used for Conduit CULVERT_98
  WARNING 04: minimum elevation drop used for Conduit FM_1293
  WARNING 04: minimum elevation drop used for Conduit FM_6050
  WARNING 04: minimum elevation drop used for Conduit FM_6093
  WARNING 04: minimum elevation drop used for Conduit IWAKUNI_DITCH_1
  WARNING 04: minimum elevation drop used for Conduit IWAKUNI_DITCH_10
  WARNING 04: minimum elevation drop used for Conduit IWAKUNI_DITCH_11
  WARNING 04: minimum elevation drop used for Conduit IWAKUNI_DITCH_12
  WARNING 04: minimum elevation drop used for Conduit IWAKUNI_DITCH_13
  WARNING 04: minimum elevation drop used for Conduit IWAKUNI_DITCH_14
  WARNING 04: minimum elevation drop used for Conduit IWAKUNI_DITCH_2
  WARNING 04: minimum elevation drop used for Conduit IWAKUNI_DITCH_4
  WARNING 04: minimum elevation drop used for Conduit IWAKUNI_DITCH_6
  WARNING 04: minimum elevation drop used for Conduit IWAKUNI_DITCH_7
  WARNING 04: minimum elevation drop used for Conduit IWAKUNI_DITCH_8
  WARNING 04: minimum elevation drop used for Conduit IWAKUNI_DITCH_9
  WARNING 04: minimum elevation drop used for Conduit MAIN_11521
  WARNING 04: minimum elevation drop used for Conduit MAIN_11522
  WARNING 04: minimum elevation drop used for Conduit MAIN_11523
  WARNING 04: minimum elevation drop used for Conduit MAIN_11524
  WARNING 04: minimum elevation drop used for Conduit MAIN_11525
  WARNING 04: minimum elevation drop used for Conduit MAIN_11526
  WARNING 04: minimum elevation drop used for Conduit MAIN_11527
  WARNING 04: minimum elevation drop used for Conduit MAIN_11528
  WARNING 04: minimum elevation drop used for Conduit MAIN_11529
  WARNING 04: minimum elevation drop used for Conduit MAIN_11530
  WARNING 04: minimum elevation drop used for Conduit MAIN_11531
  WARNING 04: minimum elevation drop used for Conduit MAIN_11532
  WARNING 04: minimum elevation drop used for Conduit MAIN_11842
  WARNING 04: minimum elevation drop used for Conduit MAIN_11843
  WARNING 04: minimum elevation drop used for Conduit MAIN_11844
  WARNING 04: minimum elevation drop used for Conduit MAIN_11846
  WARNING 04: minimum elevation drop used for Conduit MAIN_11847
  WARNING 04: minimum elevation drop used for Conduit MAIN_11848
  WARNING 04: minimum elevation drop used for Conduit MAIN_11849
  WARNING 04: minimum elevation drop used for Conduit MAIN_11850
  WARNING 04: minimum elevation drop used for Conduit MAIN_11851
  WARNING 04: minimum elevation drop used for Conduit MAIN_11852
  WARNING 04: minimum elevation drop used for Conduit MAIN_11853
  WARNING 04: minimum elevation drop used for Conduit MAIN_11854
  WARNING 04: minimum elevation drop used for Conduit MAIN_11855
  WARNING 04: minimum elevation drop used for Conduit MAIN_1188
  WARNING 04: minimum elevation drop used for Conduit MAIN_12162
  WARNING 04: minimum elevation drop used for Conduit MAIN_12165
  WARNING 04: minimum elevation drop used for Conduit MAIN_12166
  WARNING 04: minimum elevation drop used for Conduit MAIN_12167
  WARNING 04: minimum elevation drop used for Conduit MAIN_12168
  WARNING 04: minimum elevation drop used for Conduit MAIN_12486
  WARNING 04: minimum elevation drop used for Conduit MAIN_12487
  WARNING 04: minimum elevation drop used for Conduit MAIN_12488
  WARNING 04: minimum elevation drop used for Conduit MAIN_12489
  WARNING 04: minimum elevation drop used for Conduit MAIN_12490
  WARNING 04: minimum elevation drop used for Conduit MAIN_12491
  WARNING 04: minimum elevation drop used for Conduit MAIN_1297
  WARNING 04: minimum elevation drop used for Conduit MAIN_1307
  WARNING 04: minimum elevation drop used for Conduit MAIN_13136
  WARNING 04: minimum elevation drop used for Conduit MAIN_13441
  WARNING 04: minimum elevation drop used for Conduit MAIN_13448
  WARNING 04: minimum elevation drop used for Conduit MAIN_13455
  WARNING 04: minimum elevation drop used for Conduit MAIN_13459
  WARNING 04: minimum elevation drop used for Conduit MAIN_1380
  WARNING 04: minimum elevation drop used for Conduit MAIN_1382
  WARNING 04: minimum elevation drop used for Conduit MAIN_1384
  WARNING 04: minimum elevation drop used for Conduit MAIN_1385
  WARNING 04: minimum elevation drop used for Conduit MAIN_1389
  WARNING 04: minimum elevation drop used for Conduit MAIN_1390
  WARNING 04: minimum elevation drop used for Conduit MAIN_1392
  WARNING 04: minimum elevation drop used for Conduit MAIN_1394
  WARNING 04: minimum elevation drop used for Conduit MAIN_1395
  WARNING 04: minimum elevation drop used for Conduit MAIN_1396
  WARNING 04: minimum elevation drop used for Conduit MAIN_1397
  WARNING 04: minimum elevation drop used for Conduit MAIN_14089
  WARNING 04: minimum elevation drop used for Conduit MAIN_1417
  WARNING 04: minimum elevation drop used for Conduit MAIN_1466
  WARNING 04: minimum elevation drop used for Conduit MAIN_14736
  WARNING 04: minimum elevation drop used for Conduit MAIN_15690
  WARNING 04: minimum elevation drop used for Conduit MAIN_15691
  WARNING 04: minimum elevation drop used for Conduit MAIN_181
  WARNING 04: minimum elevation drop used for Conduit MAIN_1839
  WARNING 04: minimum elevation drop used for Conduit MAIN_1873
  WARNING 04: minimum elevation drop used for Conduit MAIN_1930
  WARNING 04: minimum elevation drop used for Conduit MAIN_1943
  WARNING 04: minimum elevation drop used for Conduit MAIN_2047
  WARNING 04: minimum elevation drop used for Conduit MAIN_2055
  WARNING 04: minimum elevation drop used for Conduit MAIN_206
  WARNING 04: minimum elevation drop used for Conduit MAIN_2409
  WARNING 04: minimum elevation drop used for Conduit MAIN_2415
  WARNING 04: minimum elevation drop used for Conduit MAIN_2453
  WARNING 04: minimum elevation drop used for Conduit MAIN_2529
  WARNING 04: minimum elevation drop used for Conduit MAIN_2580
  WARNING 04: minimum elevation drop used for Conduit MAIN_2875
  WARNING 04: minimum elevation drop used for Conduit MAIN_2980
  WARNING 04: minimum elevation drop used for Conduit MAIN_3005
  WARNING 04: minimum elevation drop used for Conduit MAIN_3030
  WARNING 04: minimum elevation drop used for Conduit MAIN_3089
  WARNING 04: minimum elevation drop used for Conduit MAIN_311
  WARNING 04: minimum elevation drop used for Conduit MAIN_3152
  WARNING 04: minimum elevation drop used for Conduit MAIN_3160
  WARNING 04: minimum elevation drop used for Conduit MAIN_3215
  WARNING 04: minimum elevation drop used for Conduit MAIN_3281
  WARNING 04: minimum elevation drop used for Conduit MAIN_3287
  WARNING 04: minimum elevation drop used for Conduit MAIN_3294
  WARNING 04: minimum elevation drop used for Conduit MAIN_3329
  WARNING 04: minimum elevation drop used for Conduit MAIN_3394
  WARNING 04: minimum elevation drop used for Conduit MAIN_3445
  WARNING 04: minimum elevation drop used for Conduit MAIN_3446
  WARNING 04: minimum elevation drop used for Conduit MAIN_3448
  WARNING 04: minimum elevation drop used for Conduit MAIN_3449
  WARNING 04: minimum elevation drop used for Conduit MAIN_3450
  WARNING 04: minimum elevation drop used for Conduit MAIN_3451
  WARNING 04: minimum elevation drop used for Conduit MAIN_3453
  WARNING 04: minimum elevation drop used for Conduit MAIN_3454
  WARNING 04: minimum elevation drop used for Conduit MAIN_3455
  WARNING 04: minimum elevation drop used for Conduit MAIN_3470
  WARNING 04: minimum elevation drop used for Conduit MAIN_3471
  WARNING 04: minimum elevation drop used for Conduit MAIN_3474
  WARNING 04: minimum elevation drop used for Conduit MAIN_3475
  WARNING 04: minimum elevation drop used for Conduit MAIN_3476
  WARNING 04: minimum elevation drop used for Conduit MAIN_3477
  WARNING 04: minimum elevation drop used for Conduit MAIN_3481
  WARNING 04: minimum elevation drop used for Conduit MAIN_3501
  WARNING 04: minimum elevation drop used for Conduit MAIN_3539
  WARNING 04: minimum elevation drop used for Conduit MAIN_3547
  WARNING 04: minimum elevation drop used for Conduit MAIN_3551
  WARNING 04: minimum elevation drop used for Conduit MAIN_3552
  WARNING 04: minimum elevation drop used for Conduit MAIN_3555
  WARNING 04: minimum elevation drop used for Conduit MAIN_3559
  WARNING 04: minimum elevation drop used for Conduit MAIN_3564
  WARNING 04: minimum elevation drop used for Conduit MAIN_3565
  WARNING 04: minimum elevation drop used for Conduit MAIN_3570
  WARNING 04: minimum elevation drop used for Conduit MAIN_3590
  WARNING 04: minimum elevation drop used for Conduit MAIN_3595
  WARNING 04: minimum elevation drop used for Conduit MAIN_3600
  WARNING 04: minimum elevation drop used for Conduit MAIN_3610
  WARNING 04: minimum elevation drop used for Conduit MAIN_3618
  WARNING 04: minimum elevation drop used for Conduit MAIN_3631
  WARNING 04: minimum elevation drop used for Conduit MAIN_3632
  WARNING 04: minimum elevation drop used for Conduit MAIN_3634
  WARNING 04: minimum elevation drop used for Conduit MAIN_3848
  WARNING 04: minimum elevation drop used for Conduit MAIN_3850
  WARNING 04: minimum elevation drop used for Conduit MAIN_3999
  WARNING 04: minimum elevation drop used for Conduit MAIN_4131
  WARNING 04: minimum elevation drop used for Conduit MAIN_4134
  WARNING 04: minimum elevation drop used for Conduit MAIN_4184
  WARNING 04: minimum elevation drop used for Conduit MAIN_4205
  WARNING 04: minimum elevation drop used for Conduit MAIN_4251
  WARNING 04: minimum elevation drop used for Conduit MAIN_4264
  WARNING 04: minimum elevation drop used for Conduit MAIN_4265
  WARNING 04: minimum elevation drop used for Conduit MAIN_4269
  WARNING 04: minimum elevation drop used for Conduit MAIN_4347
  WARNING 04: minimum elevation drop used for Conduit MAIN_4369
  WARNING 04: minimum elevation drop used for Conduit MAIN_4388
  WARNING 04: minimum elevation drop used for Conduit MAIN_4510
  WARNING 04: minimum elevation drop used for Conduit MAIN_6034
  WARNING 04: minimum elevation drop used for Conduit MAIN_6035
  WARNING 04: minimum elevation drop used for Conduit MAIN_6036
  WARNING 04: minimum elevation drop used for Conduit MAIN_6038
  WARNING 04: minimum elevation drop used for Conduit MAIN_6040
  WARNING 04: minimum elevation drop used for Conduit MAIN_6043
  WARNING 04: minimum elevation drop used for Conduit MAIN_6044
  WARNING 04: minimum elevation drop used for Conduit MAIN_6046
  WARNING 04: minimum elevation drop used for Conduit MAIN_6051
  WARNING 04: minimum elevation drop used for Conduit MAIN_6053
  WARNING 04: minimum elevation drop used for Conduit MAIN_6057
  WARNING 04: minimum elevation drop used for Conduit MAIN_6059
  WARNING 04: minimum elevation drop used for Conduit MAIN_6060
  WARNING 04: minimum elevation drop used for Conduit MAIN_6067
  WARNING 04: minimum elevation drop used for Conduit MAIN_6068
  WARNING 04: minimum elevation drop used for Conduit MAIN_6070
  WARNING 04: minimum elevation drop used for Conduit MAIN_6075
  WARNING 04: minimum elevation drop used for Conduit MAIN_6076
  WARNING 04: minimum elevation drop used for Conduit MAIN_6079
  WARNING 04: minimum elevation drop used for Conduit MAIN_6080
  WARNING 04: minimum elevation drop used for Conduit MAIN_6082
  WARNING 04: minimum elevation drop used for Conduit MAIN_6086
  WARNING 04: minimum elevation drop used for Conduit MAIN_6088
  WARNING 04: minimum elevation drop used for Conduit MAIN_6089
  WARNING 04: minimum elevation drop used for Conduit MAIN_6090
  WARNING 04: minimum elevation drop used for Conduit MAIN_6092
  WARNING 04: minimum elevation drop used for Conduit MAIN_6097
  WARNING 04: minimum elevation drop used for Conduit MAIN_6099
  WARNING 04: minimum elevation drop used for Conduit MAIN_6106
  WARNING 04: minimum elevation drop used for Conduit MAIN_6108
  WARNING 04: minimum elevation drop used for Conduit MAIN_6110
  WARNING 04: minimum elevation drop used for Conduit MAIN_6112
  WARNING 04: minimum elevation drop used for Conduit MAIN_6113
  WARNING 04: minimum elevation drop used for Conduit MAIN_6114
  WARNING 04: minimum elevation drop used for Conduit MAIN_6122
  WARNING 04: minimum elevation drop used for Conduit MAIN_6123
  WARNING 04: minimum elevation drop used for Conduit MAIN_6214
  WARNING 04: minimum elevation drop used for Conduit MAIN_6215
  WARNING 04: minimum elevation drop used for Conduit MAIN_6217
  WARNING 04: minimum elevation drop used for Conduit MAIN_6220
  WARNING 04: minimum elevation drop used for Conduit MAIN_6221
  WARNING 04: minimum elevation drop used for Conduit MAIN_6225
  WARNING 04: minimum elevation drop used for Conduit MAIN_6227
  WARNING 04: minimum elevation drop used for Conduit MAIN_6228
  WARNING 04: minimum elevation drop used for Conduit MAIN_6230
  WARNING 04: minimum elevation drop used for Conduit MAIN_6231
  WARNING 04: minimum elevation drop used for Conduit MAIN_6232
  WARNING 04: minimum elevation drop used for Conduit MAIN_6236
  WARNING 04: minimum elevation drop used for Conduit MAIN_6237
  WARNING 04: minimum elevation drop used for Conduit MAIN_6239
  WARNING 04: minimum elevation drop used for Conduit MAIN_6245
  WARNING 04: minimum elevation drop used for Conduit MAIN_6246
  WARNING 04: minimum elevation drop used for Conduit MAIN_6248
  WARNING 04: minimum elevation drop used for Conduit MAIN_6249
  WARNING 04: minimum elevation drop used for Conduit MAIN_6251
  WARNING 04: minimum elevation drop used for Conduit MAIN_6252
  WARNING 04: minimum elevation drop used for Conduit MAIN_6254
  WARNING 04: minimum elevation drop used for Conduit MAIN_6255
  WARNING 04: minimum elevation drop used for Conduit MAIN_6257
  WARNING 04: minimum elevation drop used for Conduit MAIN_6259
  WARNING 04: minimum elevation drop used for Conduit MAIN_6264
  WARNING 04: minimum elevation drop used for Conduit MAIN_6266
  WARNING 04: minimum elevation drop used for Conduit MAIN_6268
  WARNING 04: minimum elevation drop used for Conduit MAIN_6270
  WARNING 04: minimum elevation drop used for Conduit MAIN_6277
  WARNING 04: minimum elevation drop used for Conduit MAIN_6279
  WARNING 04: minimum elevation drop used for Conduit MAIN_6280
  WARNING 04: minimum elevation drop used for Conduit MAIN_6282
  WARNING 04: minimum elevation drop used for Conduit MAIN_6283
  WARNING 04: minimum elevation drop used for Conduit MAIN_6286
  WARNING 04: minimum elevation drop used for Conduit MAIN_6293
  WARNING 04: minimum elevation drop used for Conduit MAIN_6299
  WARNING 04: minimum elevation drop used for Conduit MAIN_6300
  WARNING 04: minimum elevation drop used for Conduit MAIN_6301
  WARNING 04: minimum elevation drop used for Conduit MAIN_6302
  WARNING 04: minimum elevation drop used for Conduit MAIN_6303
  WARNING 04: minimum elevation drop used for Conduit MAIN_6304
  WARNING 04: minimum elevation drop used for Conduit MAIN_6310
  WARNING 04: minimum elevation drop used for Conduit MAIN_6312
  WARNING 04: minimum elevation drop used for Conduit MAIN_6313
  WARNING 04: minimum elevation drop used for Conduit MAIN_6318
  WARNING 04: minimum elevation drop used for Conduit MAIN_6331
  WARNING 04: minimum elevation drop used for Conduit MAIN_6389
  WARNING 04: minimum elevation drop used for Conduit MAIN_6513
  WARNING 04: minimum elevation drop used for Conduit MAIN_6519
  WARNING 04: minimum elevation drop used for Conduit MAIN_6520
  WARNING 04: minimum elevation drop used for Conduit MAIN_6521
  WARNING 04: minimum elevation drop used for Conduit MAIN_6523
  WARNING 04: minimum elevation drop used for Conduit MAIN_6525
  WARNING 04: minimum elevation drop used for Conduit MAIN_6527
  WARNING 04: minimum elevation drop used for Conduit MAIN_6528
  WARNING 04: minimum elevation drop used for Conduit MAIN_6533
  WARNING 04: minimum elevation drop used for Conduit MAIN_6535
  WARNING 04: minimum elevation drop used for Conduit MAIN_6536
  WARNING 04: minimum elevation drop used for Conduit MAIN_6537
  WARNING 04: minimum elevation drop used for Conduit MAIN_6539
  WARNING 04: minimum elevation drop used for Conduit MAIN_6541
  WARNING 04: minimum elevation drop used for Conduit MAIN_6542
  WARNING 04: minimum elevation drop used for Conduit MAIN_6546
  WARNING 04: minimum elevation drop used for Conduit MAIN_6725
  WARNING 04: minimum elevation drop used for Conduit MAIN_711
  WARNING 04: minimum elevation drop used for Conduit MAIN_712
  WARNING 04: minimum elevation drop used for Conduit MAIN_716
  WARNING 04: minimum elevation drop used for Conduit MAIN_731
  WARNING 04: minimum elevation drop used for Conduit MAIN_7898
  WARNING 04: minimum elevation drop used for Conduit MAIN_7960
  WARNING 04: minimum elevation drop used for Conduit MAIN_8059
  WARNING 04: minimum elevation drop used for Conduit MAIN_8086
  WARNING 04: minimum elevation drop used for Conduit MAIN_812
  WARNING 04: minimum elevation drop used for Conduit MAIN_813
  WARNING 04: minimum elevation drop used for Conduit MAIN_814
  WARNING 04: minimum elevation drop used for Conduit MAIN_818
  WARNING 04: minimum elevation drop used for Conduit MAIN_819
  WARNING 04: minimum elevation drop used for Conduit MAIN_8248
  WARNING 04: minimum elevation drop used for Conduit MAIN_8265
  WARNING 04: minimum elevation drop used for Conduit MAIN_8279
  WARNING 04: minimum elevation drop used for Conduit MAIN_8295
  WARNING 04: minimum elevation drop used for Conduit MAIN_8301
  WARNING 04: minimum elevation drop used for Conduit MAIN_8303
  WARNING 04: minimum elevation drop used for Conduit MAIN_8310
  WARNING 04: minimum elevation drop used for Conduit MAIN_8315
  WARNING 04: minimum elevation drop used for Conduit MAIN_8328
  WARNING 04: minimum elevation drop used for Conduit MAIN_8439
  WARNING 04: minimum elevation drop used for Conduit MAIN_8441
  WARNING 04: minimum elevation drop used for Conduit MAIN_873
  WARNING 04: minimum elevation drop used for Conduit MAIN_874
  WARNING 04: minimum elevation drop used for Conduit MAIN_876
  WARNING 04: minimum elevation drop used for Conduit MAIN_878
  WARNING 04: minimum elevation drop used for Conduit MAIN_898
  WARNING 04: minimum elevation drop used for Conduit MAIN_931
  WARNING 04: minimum elevation drop used for Conduit MAIN_933
  WARNING 04: minimum elevation drop used for Conduit MAIN_934
  WARNING 04: minimum elevation drop used for Conduit MAIN_953
  WARNING 04: minimum elevation drop used for Conduit MAIN_962
  WARNING 04: minimum elevation drop used for Conduit MAIN_963
  WARNING 04: minimum elevation drop used for Conduit MAIN_966
  WARNING 04: minimum elevation drop used for Conduit MAIN_967
  WARNING 04: minimum elevation drop used for Conduit MAIN_968
  WARNING 04: minimum elevation drop used for Conduit MAIN_976
  WARNING 04: minimum elevation drop used for Conduit MAIN_983
  WARNING 04: minimum elevation drop used for Conduit MAIN_984
  WARNING 04: minimum elevation drop used for Conduit OPEN_DRAINAGE_10
  WARNING 04: minimum elevation drop used for Conduit OPEN_DRAINAGE_106
  WARNING 04: minimum elevation drop used for Conduit OPEN_DRAINAGE_111
  WARNING 04: minimum elevation drop used for Conduit OPEN_DRAINAGE_117
  WARNING 04: minimum elevation drop used for Conduit OPEN_DRAINAGE_118
  WARNING 04: minimum elevation drop used for Conduit OPEN_DRAINAGE_122
  WARNING 04: minimum elevation drop used for Conduit OPEN_DRAINAGE_126
  WARNING 04: minimum elevation drop used for Conduit OPEN_DRAINAGE_134
  WARNING 04: minimum elevation drop used for Conduit OPEN_DRAINAGE_148
  WARNING 04: minimum elevation drop used for Conduit OPEN_DRAINAGE_149
  WARNING 04: minimum elevation drop used for Conduit OPEN_DRAINAGE_155
  WARNING 04: minimum elevation drop used for Conduit OPEN_DRAINAGE_160
  WARNING 04: minimum elevation drop used for Conduit OPEN_DRAINAGE_17
  WARNING 04: minimum elevation drop used for Conduit OPEN_DRAINAGE_171
  WARNING 04: minimum elevation drop used for Conduit OPEN_DRAINAGE_175
  WARNING 04: minimum elevation drop used for Conduit OPEN_DRAINAGE_177
  WARNING 04: minimum elevation drop used for Conduit OPEN_DRAINAGE_179
  WARNING 04: minimum elevation drop used for Conduit OPEN_DRAINAGE_18
  WARNING 04: minimum elevation drop used for Conduit OPEN_DRAINAGE_185
  WARNING 04: minimum elevation drop used for Conduit OPEN_DRAINAGE_192
  WARNING 04: minimum elevation drop used for Conduit OPEN_DRAINAGE_194
  WARNING 04: minimum elevation drop used for Conduit OPEN_DRAINAGE_197
  WARNING 04: minimum elevation drop used for Conduit OPEN_DRAINAGE_2
  WARNING 04: minimum elevation drop used for Conduit OPEN_DRAINAGE_20
  WARNING 04: minimum elevation drop used for Conduit OPEN_DRAINAGE_21
  WARNING 04: minimum elevation drop used for Conduit OPEN_DRAINAGE_212
  WARNING 04: minimum elevation drop used for Conduit OPEN_DRAINAGE_22
  WARNING 04: minimum elevation drop used for Conduit OPEN_DRAINAGE_23
  WARNING 04: minimum elevation drop used for Conduit OPEN_DRAINAGE_245
  WARNING 04: minimum elevation drop used for Conduit OPEN_DRAINAGE_254
  WARNING 04: minimum elevation drop used for Conduit OPEN_DRAINAGE_26
  WARNING 04: minimum elevation drop used for Conduit OPEN_DRAINAGE_262
  WARNING 04: minimum elevation drop used for Conduit OPEN_DRAINAGE_266
  WARNING 04: minimum elevation drop used for Conduit OPEN_DRAINAGE_268
  WARNING 04: minimum elevation drop used for Conduit OPEN_DRAINAGE_275
  WARNING 04: minimum elevation drop used for Conduit OPEN_DRAINAGE_283
  WARNING 04: minimum elevation drop used for Conduit OPEN_DRAINAGE_289
  WARNING 04: minimum elevation drop used for Conduit OPEN_DRAINAGE_293
  WARNING 04: minimum elevation drop used for Conduit OPEN_DRAINAGE_30
  WARNING 04: minimum elevation drop used for Conduit OPEN_DRAINAGE_302
  WARNING 04: minimum elevation drop used for Conduit OPEN_DRAINAGE_308
  WARNING 04: minimum elevation drop used for Conduit OPEN_DRAINAGE_309
  WARNING 04: minimum elevation drop used for Conduit OPEN_DRAINAGE_310
  WARNING 04: minimum elevation drop used for Conduit OPEN_DRAINAGE_318
  WARNING 04: minimum elevation drop used for Conduit OPEN_DRAINAGE_319
  WARNING 04: minimum elevation drop used for Conduit OPEN_DRAINAGE_323
  WARNING 04: minimum elevation drop used for Conduit OPEN_DRAINAGE_337
  WARNING 04: minimum elevation drop used for Conduit OPEN_DRAINAGE_339
  WARNING 04: minimum elevation drop used for Conduit OPEN_DRAINAGE_341
  WARNING 04: minimum elevation drop used for Conduit OPEN_DRAINAGE_346
  WARNING 04: minimum elevation drop used for Conduit OPEN_DRAINAGE_350
  WARNING 04: minimum elevation drop used for Conduit OPEN_DRAINAGE_364
  WARNING 04: minimum elevation drop used for Conduit OPEN_DRAINAGE_373
  WARNING 04: minimum elevation drop used for Conduit OPEN_DRAINAGE_380
  WARNING 04: minimum elevation drop used for Conduit OPEN_DRAINAGE_396
  WARNING 04: minimum elevation drop used for Conduit OPEN_DRAINAGE_398
  WARNING 04: minimum elevation drop used for Conduit OPEN_DRAINAGE_400
  WARNING 04: minimum elevation drop used for Conduit OPEN_DRAINAGE_402
  WARNING 04: minimum elevation drop used for Conduit OPEN_DRAINAGE_403
  WARNING 04: minimum elevation drop used for Conduit OPEN_DRAINAGE_404
  WARNING 04: minimum elevation drop used for Conduit OPEN_DRAINAGE_406
  WARNING 04: minimum elevation drop used for Conduit OPEN_DRAINAGE_408
  WARNING 04: minimum elevation drop used for Conduit OPEN_DRAINAGE_412
  WARNING 04: minimum elevation drop used for Conduit OPEN_DRAINAGE_415
  WARNING 04: minimum elevation drop used for Conduit OPEN_DRAINAGE_417
  WARNING 04: minimum elevation drop used for Conduit OPEN_DRAINAGE_419
  WARNING 04: minimum elevation drop used for Conduit OPEN_DRAINAGE_420
  WARNING 04: minimum elevation drop used for Conduit OPEN_DRAINAGE_421
  WARNING 04: minimum elevation drop used for Conduit OPEN_DRAINAGE_422
  WARNING 04: minimum elevation drop used for Conduit OPEN_DRAINAGE_423
  WARNING 04: minimum elevation drop used for Conduit OPEN_DRAINAGE_425
  WARNING 04: minimum elevation drop used for Conduit OPEN_DRAINAGE_427
  WARNING 04: minimum elevation drop used for Conduit OPEN_DRAINAGE_428
  WARNING 04: minimum elevation drop used for Conduit OPEN_DRAINAGE_430
  WARNING 04: minimum elevation drop used for Conduit OPEN_DRAINAGE_431
  WARNING 04: minimum elevation drop used for Conduit OPEN_DRAINAGE_443
  WARNING 04: minimum elevation drop used for Conduit OPEN_DRAINAGE_450
  WARNING 04: minimum elevation drop used for Conduit OPEN_DRAINAGE_46
  WARNING 04: minimum elevation drop used for Conduit OPEN_DRAINAGE_461
  WARNING 04: minimum elevation drop used for Conduit OPEN_DRAINAGE_464
  WARNING 04: minimum elevation drop used for Conduit OPEN_DRAINAGE_467
  WARNING 04: minimum elevation drop used for Conduit OPEN_DRAINAGE_468
  WARNING 04: minimum elevation drop used for Conduit OPEN_DRAINAGE_471
  WARNING 04: minimum elevation drop used for Conduit OPEN_DRAINAGE_479
  WARNING 04: minimum elevation drop used for Conduit OPEN_DRAINAGE_483
  WARNING 04: minimum elevation drop used for Conduit OPEN_DRAINAGE_488
  WARNING 04: minimum elevation drop used for Conduit OPEN_DRAINAGE_5
  WARNING 04: minimum elevation drop used for Conduit OPEN_DRAINAGE_502
  WARNING 04: minimum elevation drop used for Conduit OPEN_DRAINAGE_510
  WARNING 04: minimum elevation drop used for Conduit OPEN_DRAINAGE_513
  WARNING 04: minimum elevation drop used for Conduit OPEN_DRAINAGE_522
  WARNING 04: minimum elevation drop used for Conduit OPEN_DRAINAGE_523
  WARNING 04: minimum elevation drop used for Conduit OPEN_DRAINAGE_537
  WARNING 04: minimum elevation drop used for Conduit OPEN_DRAINAGE_538
  WARNING 04: minimum elevation drop used for Conduit OPEN_DRAINAGE_544
  WARNING 04: minimum elevation drop used for Conduit OPEN_DRAINAGE_57
  WARNING 04: minimum elevation drop used for Conduit OPEN_DRAINAGE_6
  WARNING 04: minimum elevation drop used for Conduit OPEN_DRAINAGE_61
  WARNING 04: minimum elevation drop used for Conduit OPEN_DRAINAGE_64
  WARNING 04: minimum elevation drop used for Conduit OPEN_DRAINAGE_66
  WARNING 04: minimum elevation drop used for Conduit OPEN_DRAINAGE_68
  WARNING 04: minimum elevation drop used for Conduit OPEN_DRAINAGE_78
  WARNING 04: minimum elevation drop used for Conduit OPEN_DRAINAGE_85
  WARNING 04: minimum elevation drop used for Conduit OPEN_DRAINAGE_9
  WARNING 04: minimum elevation drop used for Conduit OPEN_DRAINAGE_92
  WARNING 04: minimum elevation drop used for Conduit PAVED_DITCH_102
  WARNING 04: minimum elevation drop used for Conduit PAVED_DITCH_107
  WARNING 04: minimum elevation drop used for Conduit PAVED_DITCH_110
  WARNING 04: minimum elevation drop used for Conduit PAVED_DITCH_113
  WARNING 04: minimum elevation drop used for Conduit PAVED_DITCH_130
  WARNING 04: minimum elevation drop used for Conduit PAVED_DITCH_135
  WARNING 04: minimum elevation drop used for Conduit PAVED_DITCH_14
  WARNING 04: minimum elevation drop used for Conduit PAVED_DITCH_153
  WARNING 04: minimum elevation drop used for Conduit PAVED_DITCH_154
  WARNING 04: minimum elevation drop used for Conduit PAVED_DITCH_16
  WARNING 04: minimum elevation drop used for Conduit PAVED_DITCH_163
  WARNING 04: minimum elevation drop used for Conduit PAVED_DITCH_166
  WARNING 04: minimum elevation drop used for Conduit PAVED_DITCH_186
  WARNING 04: minimum elevation drop used for Conduit PAVED_DITCH_188
  WARNING 04: minimum elevation drop used for Conduit PAVED_DITCH_203
  WARNING 04: minimum elevation drop used for Conduit PAVED_DITCH_209
  WARNING 04: minimum elevation drop used for Conduit PAVED_DITCH_220
  WARNING 04: minimum elevation drop used for Conduit PAVED_DITCH_228
  WARNING 04: minimum elevation drop used for Conduit PAVED_DITCH_230
  WARNING 04: minimum elevation drop used for Conduit PAVED_DITCH_231
  WARNING 04: minimum elevation drop used for Conduit PAVED_DITCH_232
  WARNING 04: minimum elevation drop used for Conduit PAVED_DITCH_239
  WARNING 04: minimum elevation drop used for Conduit PAVED_DITCH_240
  WARNING 04: minimum elevation drop used for Conduit PAVED_DITCH_252
  WARNING 04: minimum elevation drop used for Conduit PAVED_DITCH_257
  WARNING 04: minimum elevation drop used for Conduit PAVED_DITCH_260
  WARNING 04: minimum elevation drop used for Conduit PAVED_DITCH_276
  WARNING 04: minimum elevation drop used for Conduit PAVED_DITCH_292
  WARNING 04: minimum elevation drop used for Conduit PAVED_DITCH_294
  WARNING 04: minimum elevation drop used for Conduit PAVED_DITCH_315
  WARNING 04: minimum elevation drop used for Conduit PAVED_DITCH_325
  WARNING 04: minimum elevation drop used for Conduit PAVED_DITCH_328
  WARNING 04: minimum elevation drop used for Conduit PAVED_DITCH_366
  WARNING 04: minimum elevation drop used for Conduit PAVED_DITCH_368
  WARNING 04: minimum elevation drop used for Conduit PAVED_DITCH_370
  WARNING 04: minimum elevation drop used for Conduit PAVED_DITCH_383
  WARNING 04: minimum elevation drop used for Conduit PAVED_DITCH_395
  WARNING 04: minimum elevation drop used for Conduit PAVED_DITCH_397
  WARNING 04: minimum elevation drop used for Conduit PAVED_DITCH_399
  WARNING 04: minimum elevation drop used for Conduit PAVED_DITCH_405
  WARNING 04: minimum elevation drop used for Conduit PAVED_DITCH_407
  WARNING 04: minimum elevation drop used for Conduit PAVED_DITCH_409
  WARNING 04: minimum elevation drop used for Conduit PAVED_DITCH_411
  WARNING 04: minimum elevation drop used for Conduit PAVED_DITCH_413
  WARNING 04: minimum elevation drop used for Conduit PAVED_DITCH_418
  WARNING 04: minimum elevation drop used for Conduit PAVED_DITCH_426
  WARNING 04: minimum elevation drop used for Conduit PAVED_DITCH_433
  WARNING 04: minimum elevation drop used for Conduit PAVED_DITCH_448
  WARNING 04: minimum elevation drop used for Conduit PAVED_DITCH_45
  WARNING 04: minimum elevation drop used for Conduit PAVED_DITCH_451
  WARNING 04: minimum elevation drop used for Conduit PAVED_DITCH_452
  WARNING 04: minimum elevation drop used for Conduit PAVED_DITCH_457
  WARNING 04: minimum elevation drop used for Conduit PAVED_DITCH_458
  WARNING 04: minimum elevation drop used for Conduit PAVED_DITCH_459
  WARNING 04: minimum elevation drop used for Conduit PAVED_DITCH_47
  WARNING 04: minimum elevation drop used for Conduit PAVED_DITCH_487
  WARNING 04: minimum elevation drop used for Conduit PAVED_DITCH_49
  WARNING 03: negative offset ignored for Link PAVED_DITCH_494
  WARNING 04: minimum elevation drop used for Conduit PAVED_DITCH_500
  WARNING 04: minimum elevation drop used for Conduit PAVED_DITCH_507
  WARNING 04: minimum elevation drop used for Conduit PAVED_DITCH_518
  WARNING 04: minimum elevation drop used for Conduit PAVED_DITCH_52
  WARNING 04: minimum elevation drop used for Conduit PAVED_DITCH_520
  WARNING 04: minimum elevation drop used for Conduit PAVED_DITCH_525
  WARNING 04: minimum elevation drop used for Conduit PAVED_DITCH_528
  WARNING 04: minimum elevation drop used for Conduit PAVED_DITCH_543
  WARNING 04: minimum elevation drop used for Conduit PAVED_DITCH_58
  WARNING 04: minimum elevation drop used for Conduit PAVED_DITCH_70
  WARNING 04: minimum elevation drop used for Conduit PAVED_DITCH_84
  WARNING 04: minimum elevation drop used for Conduit SERVICE_1012
  WARNING 04: minimum elevation drop used for Conduit SERVICE_1014
  WARNING 04: minimum elevation drop used for Conduit SERVICE_1015
  WARNING 04: minimum elevation drop used for Conduit SERVICE_1084
  WARNING 04: minimum elevation drop used for Conduit SERVICE_1088
  WARNING 04: minimum elevation drop used for Conduit SERVICE_1201
  WARNING 04: minimum elevation drop used for Conduit SERVICE_1383
  WARNING 04: minimum elevation drop used for Conduit SERVICE_1398
  WARNING 04: minimum elevation drop used for Conduit SERVICE_1435
  WARNING 04: minimum elevation drop used for Conduit SERVICE_1436
  WARNING 04: minimum elevation drop used for Conduit SERVICE_2523
  WARNING 04: minimum elevation drop used for Conduit SERVICE_3190
  WARNING 04: minimum elevation drop used for Conduit SERVICE_3483
  WARNING 04: minimum elevation drop used for Conduit SERVICE_3741
  WARNING 04: minimum elevation drop used for Conduit SERVICE_6226
  WARNING 04: minimum elevation drop used for Conduit SERVICE_695
  WARNING 04: minimum elevation drop used for Conduit SERVICE_697
  WARNING 04: minimum elevation drop used for Conduit SERVICE_7907
  WARNING 04: minimum elevation drop used for Conduit SERVICE_875
  WARNING 04: minimum elevation drop used for Conduit SERVICE_879
  WARNING 04: minimum elevation drop used for Conduit SERVICE_886
  WARNING 04: minimum elevation drop used for Conduit SERVICE_930
  WARNING 04: minimum elevation drop used for Conduit SERVICE_979
  WARNING 04: minimum elevation drop used for Conduit UNPAVED_DITCH_120
  WARNING 04: minimum elevation drop used for Conduit UNPAVED_DITCH_152
  WARNING 04: minimum elevation drop used for Conduit UNPAVED_DITCH_158
  WARNING 04: minimum elevation drop used for Conduit UNPAVED_DITCH_161
  WARNING 04: minimum elevation drop used for Conduit UNPAVED_DITCH_165
  WARNING 04: minimum elevation drop used for Conduit UNPAVED_DITCH_174
  WARNING 04: minimum elevation drop used for Conduit UNPAVED_DITCH_184
  WARNING 04: minimum elevation drop used for Conduit UNPAVED_DITCH_189
  WARNING 04: minimum elevation drop used for Conduit UNPAVED_DITCH_219
  WARNING 04: minimum elevation drop used for Conduit UNPAVED_DITCH_221
  WARNING 04: minimum elevation drop used for Conduit UNPAVED_DITCH_222
  WARNING 04: minimum elevation drop used for Conduit UNPAVED_DITCH_235
  WARNING 04: minimum elevation drop used for Conduit UNPAVED_DITCH_24
  WARNING 04: minimum elevation drop used for Conduit UNPAVED_DITCH_242
  WARNING 04: minimum elevation drop used for Conduit UNPAVED_DITCH_249
  WARNING 04: minimum elevation drop used for Conduit UNPAVED_DITCH_251
  WARNING 04: minimum elevation drop used for Conduit UNPAVED_DITCH_253
  WARNING 04: minimum elevation drop used for Conduit UNPAVED_DITCH_259
  WARNING 04: minimum elevation drop used for Conduit UNPAVED_DITCH_271
  WARNING 04: minimum elevation drop used for Conduit UNPAVED_DITCH_281
  WARNING 04: minimum elevation drop used for Conduit UNPAVED_DITCH_287
  WARNING 04: minimum elevation drop used for Conduit UNPAVED_DITCH_333
  WARNING 04: minimum elevation drop used for Conduit UNPAVED_DITCH_335
  WARNING 04: minimum elevation drop used for Conduit UNPAVED_DITCH_338
  WARNING 04: minimum elevation drop used for Conduit UNPAVED_DITCH_357
  WARNING 04: minimum elevation drop used for Conduit UNPAVED_DITCH_374
  WARNING 04: minimum elevation drop used for Conduit UNPAVED_DITCH_389
  WARNING 04: minimum elevation drop used for Conduit UNPAVED_DITCH_410
  WARNING 04: minimum elevation drop used for Conduit UNPAVED_DITCH_416
  WARNING 04: minimum elevation drop used for Conduit UNPAVED_DITCH_429
  WARNING 04: minimum elevation drop used for Conduit UNPAVED_DITCH_438
  WARNING 04: minimum elevation drop used for Conduit UNPAVED_DITCH_444
  WARNING 04: minimum elevation drop used for Conduit UNPAVED_DITCH_454
  WARNING 04: minimum elevation drop used for Conduit UNPAVED_DITCH_456
  WARNING 04: minimum elevation drop used for Conduit UNPAVED_DITCH_462
  WARNING 04: minimum elevation drop used for Conduit UNPAVED_DITCH_48
  WARNING 04: minimum elevation drop used for Conduit UNPAVED_DITCH_486
  WARNING 04: minimum elevation drop used for Conduit UNPAVED_DITCH_501
  WARNING 04: minimum elevation drop used for Conduit UNPAVED_DITCH_515
  WARNING 04: minimum elevation drop used for Conduit UNPAVED_DITCH_529
  WARNING 04: minimum elevation drop used for Conduit UNPAVED_DITCH_534
  WARNING 04: minimum elevation drop used for Conduit UNPAVED_DITCH_539
  WARNING 04: minimum elevation drop used for Conduit UNPAVED_DITCH_541
  WARNING 04: minimum elevation drop used for Conduit UNPAVED_DITCH_542
  WARNING 04: minimum elevation drop used for Conduit UNPAVED_DITCH_62
  WARNING 04: minimum elevation drop used for Conduit UNPAVED_DITCH_77
  WARNING 10: crest elevation raised to downstream invert for regulator Link SOUTH_POND_B_WEIR1
  WARNING 10: crest elevation raised to downstream invert for regulator Link WEIR-15
  WARNING 10: crest elevation raised to downstream invert for regulator Link WEIR-19
  WARNING 10: crest elevation raised to downstream invert for regulator Link WEIR-35
[...]
  MAIN_5967                   0.01      0.01      0.14      0.13         0.01
  MAIN_5976                   0.19      0.19      0.26      0.01         0.01
  MAIN_5980                   0.55      0.55      0.60      0.01         0.01
  MAIN_5990                   0.01      0.01      0.02      0.01         0.01
  MAIN_6030                   0.49      0.49      0.54      0.01         0.01
  MAIN_6052                   0.03      0.03      0.07      0.01         0.01
  MAIN_6056                   0.01      0.01      0.10      0.01         0.01
  MAIN_6075                   0.01      0.28      0.01      0.54         0.01
  MAIN_6089                   0.23      0.24      0.23      0.46         0.23
  MAIN_6096                   0.26      0.26      0.28      0.28         0.25
  MAIN_6113                   0.18      0.18      0.34      0.59         0.01
  MAIN_620                    0.09      0.09      0.12      0.01         0.01
  MAIN_6215                   0.27      0.27      0.27      0.25         0.13
  MAIN_6220                   0.14      0.14      0.14      0.01         0.06
  MAIN_6221                   0.15      0.15      0.17      0.61         0.01
  MAIN_6227                   0.01      0.01      0.01      0.07         0.01
  MAIN_6231                   0.01      0.01      0.01      0.34         0.01
  MAIN_6232                   0.17      0.17      0.17      0.01         0.07
  MAIN_6236                   0.07      0.07      0.25      0.54         0.01
  MAIN_6239                   0.27      0.27      0.27      0.16         0.12
  MAIN_624                    0.12      0.12      0.13      0.01         0.01
  MAIN_6245                   0.27      0.27      0.27      0.17         0.13
  MAIN_6246                   0.01      0.01      0.01      0.19         0.01
  MAIN_6248                   0.01      0.01      0.01      0.15         0.01
  MAIN_6249                   0.01      0.01      0.01      0.09         0.01
  MAIN_6252                   0.01      0.01      0.01      0.36         0.01
  MAIN_6264                   0.01      0.01      0.01      0.34         0.01
  MAIN_6266                   0.14      0.14      0.14      0.02         0.07
  MAIN_6268                   0.01      0.01      0.01      0.20         0.01
  MAIN_6270                   0.27      0.27      0.27      0.01         0.12
  MAIN_6277                   0.27      0.27      0.27      0.12         0.13
  MAIN_6279                   0.01      0.01      0.01      0.07         0.01
  MAIN_6280                   0.01      0.01      0.01      0.25         0.01
  MAIN_6282                   0.25      0.25      0.27      0.56         0.01
  MAIN_6286                   0.15      0.15      0.31      0.63         0.05
  MAIN_6290                   0.01      0.05      0.01      0.26         0.01
  MAIN_6293                   0.01      0.01      0.01      0.25         0.01
  MAIN_6300                   0.01      0.01      0.01      0.21         0.01
  MAIN_6303                   0.31      0.31      0.31      0.44         0.17
  MAIN_6310                   0.05      0.05      0.05      0.50         0.01
  MAIN_6313                   0.13      0.31      0.13      0.57         0.13
  MAIN_6331                   0.10      0.10      0.10      0.44         0.06
  MAIN_6345                   0.51      0.51      0.57      0.45         0.01
  MAIN_6389                   0.53      0.54      0.53      0.60         0.53
  MAIN_6418                   0.22      0.22      0.23      0.01         0.01
  MAIN_6420                   0.02      0.02      0.04      0.01         0.01
  MAIN_6459                   0.17      0.17      0.26      0.01         0.01
  MAIN_6464                   0.01      0.01      0.25      0.47         0.01
  MAIN_6465                   0.27      0.27      0.33      0.01         0.01
  MAIN_6471                   0.50      0.50      0.53      0.48         0.48
  MAIN_6484                   0.53      0.53      0.54      0.51         0.01
  MAIN_6513                   0.01      0.01      0.01      0.33         0.01
  MAIN_6519                   0.14      0.14      0.14      0.01         0.06
  MAIN_6523                   0.01      0.01      0.01      0.34         0.01
  MAIN_6528                   0.14      0.14      0.14      0.01         0.07
  MAIN_6533                   0.05      0.05      0.05      0.46         0.01
  MAIN_6535                   0.01      0.01      0.01      0.21         0.01
  MAIN_6536                   0.01      0.01      0.01      0.33         0.01
  MAIN_6537                   0.01      0.01      0.01      0.09         0.01
  MAIN_6539                   0.27      0.27      0.27      0.32         0.12
  MAIN_6542                   0.01      0.01      0.01      0.25         0.01
  MAIN_656                    0.35      0.35      0.41      0.01         0.01
  MAIN_6622                   0.23      0.23      0.25      0.01         0.01
  MAIN_6626                   0.11      0.17      0.11      0.34         0.11
  MAIN_6627                   0.37      0.37      0.41      0.01         0.01
  MAIN_6629                   0.10      0.18      0.10      0.28         0.10
  MAIN_6631                   0.01      0.11      0.01      0.34         0.01
  MAIN_6664                   0.41      0.41      0.41      0.01         0.01
  MAIN_673                    0.35      0.35      0.38      0.01         0.01
  MAIN_6740                   0.17      0.20      0.17      0.35         0.17
  MAIN_6743                   0.21      0.21      0.23      0.01         0.02
  MAIN_6747                   0.04      0.04      0.05      0.01         0.01
  MAIN_6748                   0.06      0.10      0.06      0.27         0.06
  MAIN_6753                   0.54      0.54      0.67      0.01         0.01
  MAIN_678                    0.04      0.04      0.06      0.01         0.01
  MAIN_6790                   0.01      0.01      0.05      0.01         0.01
  MAIN_6791                   0.13      0.13      0.13      0.01         0.01
  MAIN_6793                   0.20      0.23      0.20      0.35         0.20
  MAIN_6795                   0.05      0.05      0.06      0.01         0.01
  MAIN_6798                   0.20      0.20      0.21      0.01         0.02
  MAIN_680                    0.08      0.08      0.13      0.01         0.01
  MAIN_6808                   0.21      0.21      0.21      0.01         0.01
  MAIN_682                    0.12      0.12      0.15      0.01         0.01
  MAIN_6836                   0.23      0.23      0.40      0.01         0.01
  MAIN_684                    0.29      0.29      0.33      0.01         0.01
  MAIN_6841                   0.44      0.44      0.49      0.01         0.01
  MAIN_6875                   0.36      0.36      0.36      0.01         0.01
  MAIN_6931                   0.01      0.01      0.03      0.01         0.01
  MAIN_6948                   0.43      0.43      0.52      0.30         0.01
  MAIN_6990                   0.54      0.54      0.55      0.41         0.01
  MAIN_6991                   0.52      0.52      0.52      0.34         0.01
  MAIN_7007                   0.01      0.01      0.18      0.23         0.01
  MAIN_7057                   0.56      0.56      0.59      0.01         0.01
  MAIN_7068                   0.54      0.54      0.55      0.02         0.03
  MAIN_7097                   0.03      0.03      0.23      0.01         0.01
  MAIN_7105                   0.34      0.34      0.34      0.01         0.01
  MAIN_7109                   0.01      0.01      0.46      0.18         0.01
  MAIN_711                    0.01      0.01      0.01      0.14         0.01
  MAIN_7115                   0.14      0.14      0.25      0.01         0.01
  MAIN_7148                   0.05      0.06      0.05      0.27         0.05
  MAIN_716                    0.01      0.01      0.01      0.11         0.01
  MAIN_7185                   0.04      0.04      0.09      0.01         0.01
  MAIN_7216                   0.53      0.53      0.54      0.15         0.01
  MAIN_7233                   0.01      0.01      0.05      0.01         0.01
  MAIN_731                    0.34      0.34      0.34      0.62         0.33
  MAIN_7311                   0.50      0.50      0.50      0.56         0.01
  MAIN_7328                   0.01      0.01      0.04      0.01         0.01
  MAIN_7352                   0.03      0.03      0.03      0.01         0.01
  MAIN_7354                   0.25      0.25      0.28      0.01         0.01
  MAIN_7362                   0.20      0.20      0.22      0.01         0.01
  MAIN_7380                   0.44      0.44      0.45      0.01         0.01
  MAIN_7388                   0.45      0.45      0.45      0.01         0.01
  MAIN_7392                   0.51      0.51      0.53      0.01         0.01
  MAIN_7394                   0.45      0.45      0.50      0.34         0.34
  MAIN_7440                   0.14      0.14      0.25      0.01         0.01
  MAIN_7456                   0.02      0.02      0.03      0.01         0.01
  MAIN_7468                   0.50      0.50      0.51      0.01         0.01
  MAIN_7484                   0.25      0.25      0.44      0.01         0.01
  MAIN_7518                   0.42      0.42      0.45      0.01         0.01
  MAIN_752                    0.25      0.25      0.33      0.01         0.01
  MAIN_7532                   0.45      0.45      0.49      0.03         0.03
  MAIN_7655                   0.17      0.17      0.17      0.01         0.01
  MAIN_7736                   0.50      0.50      0.50      0.44         0.37
  MAIN_7750                   0.10      0.10      0.16      0.01         0.01
  MAIN_7779                   0.34      0.34      0.44      0.01         0.01
  MAIN_7784                   0.01      0.01      0.05      0.01         0.01
  MAIN_7789                   0.13      0.13      0.18      0.01         0.01
  MAIN_7810                   0.34      0.34      0.36      0.01         0.01
  MAIN_7837                   0.34      0.34      0.37      0.01         0.01
  MAIN_7847                   0.34      0.34      0.34      0.01         0.01
  MAIN_785                    0.15      0.15      0.19      0.01         0.01
  MAIN_7878                   0.04      0.13      0.04      0.17         0.04
  MAIN_7898                   0.01      0.01      0.01      0.20         0.01
  MAIN_7960                   0.01      0.01      0.01      0.40         0.01
  MAIN_7977                   0.34      0.34      0.39      0.43         0.01
  MAIN_7985                   0.35      0.35      0.39      0.03         0.07
  MAIN_7993                   0.53      0.53      0.53      0.39         0.39
  MAIN_7995                   0.25      0.25      0.26      0.13         0.01
  MAIN_8013                   0.40      0.40      0.45      0.01         0.01
  MAIN_803                    0.10      0.10      0.10      0.01         0.01
  MAIN_8034                   0.01      0.01      0.50      0.14         0.01
  MAIN_8059                   0.15      0.15      0.15      0.01         0.07
  MAIN_8086                   0.30      0.30      0.36      0.59         0.01
  MAIN_8099                   0.01      0.01      0.31      0.01         0.01
  MAIN_812                    0.05      0.14      0.05      0.44         0.05
  MAIN_813                    0.14      0.20      0.14      0.52         0.14
  MAIN_814                    0.33      0.34      0.33      0.36         0.33
  MAIN_8145                   0.28      0.28      0.29      0.01         0.01
  MAIN_8179                   0.20      0.20      0.22      0.01         0.01
  MAIN_818                    0.08      0.08      0.09      0.40         0.03
  MAIN_819                    0.09      0.09      0.09      0.27         0.03
  MAIN_8203                   0.51      0.51      0.53      0.01         0.01
  MAIN_8219                   0.02      0.02      0.13      0.01         0.01
  MAIN_8228                   0.33      0.33      0.34      0.01         0.01
  MAIN_8248                   0.01      0.01      0.01      0.19         0.01
  MAIN_8265                   0.02      0.02      0.09      0.71         0.01
  MAIN_8270                   0.01      0.01      0.61      0.01         0.01
  MAIN_8279                   0.10      0.10      0.12      0.51         0.01
  MAIN_8295                   0.01      0.01      0.01      0.50         0.01
  MAIN_8301                   0.05      0.05      0.05      0.51         0.01
  MAIN_8303                   0.49      0.49      0.49      0.62         0.41
  MAIN_8310                   0.01      0.01      0.01      0.34         0.01
  MAIN_8315                   0.01      0.31      0.01      0.53         0.01
  MAIN_8328                   0.14      0.14      0.31      0.63         0.01
  MAIN_8437                   0.01      0.01      0.31      0.01         0.01
  MAIN_8645                   0.14      0.33      0.14      0.34         0.14
  MAIN_873                    0.08      0.08      0.08      0.32         0.03
  MAIN_874                    0.16      0.16      0.19      0.55         0.01
  MAIN_876                    0.12      0.12      0.16      0.55         0.03
  MAIN_878                    0.19      0.20      0.20      0.64         0.01
  MAIN_910                    0.22      0.22      0.25      0.01         0.01
  MAIN_918                    0.01      0.01      0.04      0.01         0.01
  MAIN_931                    0.34      0.34      0.34      0.36         0.17
  MAIN_933                    0.01      0.01      0.03      0.32         0.01
  MAIN_934                    0.01      0.01      0.01      0.26         0.01
  MAIN_953                    0.01      0.01      0.01      0.05         0.01
  MAIN_962                    0.01      0.01      0.01      0.04         0.01
  MAIN_963                    0.01      0.01      0.01      0.02         0.01
  MAIN_966                    0.01      0.01      0.01      0.01         0.01
  MAIN_968                    0.01      0.01      0.01      0.05         0.01
  MAIN_976                    0.03      0.03      0.05      0.36         0.01
  MAIN_983                    0.33      0.33      0.33      0.33         0.29
  MAIN_984                    0.33      0.33      0.34      0.61         0.23
  PAVED_DITCH_162             0.01      0.01      0.17      0.01         0.01
  PAVED_DITCH_407             0.01      0.01      0.01      0.05         0.01
  SERVICE_1006                0.08      0.15      0.12      0.01         0.03
  SERVICE_1012                0.01      0.39      0.01      0.57         0.01
  SERVICE_1014                0.01      0.37      0.01      0.58         0.01
  SERVICE_1015                0.01      0.02      0.01      0.52         0.01
  SERVICE_1084                0.27      0.27      0.27      0.01         0.11
  SERVICE_1088                0.43      0.43      0.43      0.57         0.42
  SERVICE_1195                0.19      0.19      0.22      0.17         0.18
  SERVICE_1197                0.01      0.01      0.05      0.01         0.01
  SERVICE_1201                0.01      0.01      0.01      0.24         0.01
  SERVICE_1206                0.01      0.01      0.72      0.01         0.01
  SERVICE_1211                0.03      0.03      0.24      0.01         0.01
  SERVICE_12822               0.16      0.16      0.17      0.13         0.13
  SERVICE_1383                0.06      0.06      0.06      0.01         0.02
  SERVICE_1398                0.15      0.15      0.17      0.60         0.01
  SERVICE_1435                0.34      0.34      0.34      0.21         0.16
  SERVICE_1436                0.34      0.34      0.34      0.19         0.16
  SERVICE_1502                0.01      0.01      0.10      0.01         0.01
  SERVICE_2523                0.01      0.01      0.01      0.40         0.01
  SERVICE_3100                0.20      0.20      0.21      0.12         0.11
  SERVICE_3105                0.39      0.39      0.40      0.49         0.01
  SERVICE_3121                0.22      0.22      0.36      0.12         0.01
  SERVICE_3190                0.01      0.01      0.01      0.04         0.01
  SERVICE_3237                0.38      0.38      0.39      0.25         0.26
  SERVICE_3483                0.34      0.34      0.34      0.03         0.16
  SERVICE_3741                0.01      0.01      0.01      0.60         0.01
  SERVICE_3805                0.36      0.36      0.38      0.07         0.01
  SERVICE_4164                0.24      0.24      0.63      0.01         0.01
  SERVICE_4503                0.01      0.01      0.42      0.01         0.01
  SERVICE_4531                0.01      0.01      0.19      0.01         0.01
  SERVICE_4689                0.01      0.01      0.01      0.02         0.01
  SERVICE_4735                0.20      0.20      0.56      0.01         0.01
  SERVICE_4765                0.22      0.22      0.56      0.01         0.01
  SERVICE_4872                0.39      0.39      0.41      0.28         0.29
  SERVICE_4914                0.39      0.39      0.40      0.27         0.28
  SERVICE_4976                0.25      0.25      0.41      0.25         0.01
  SERVICE_5274                0.13      0.13      0.14      0.01         0.01
  SERVICE_5343                0.01      0.01      0.31      0.01         0.01
  SERVICE_5493                0.01      0.01      0.35      0.01         0.01
  SERVICE_5889                0.01      0.44      0.01      0.48         0.01
  SERVICE_5927                0.36      0.36      0.39      0.01         0.01
  SERVICE_6121                0.28      0.28      0.38      0.01         0.01
  SERVICE_6127                0.01      0.01      0.54      0.01         0.01
  SERVICE_6162                0.21      0.21      0.36      0.01         0.01
  SERVICE_6410                0.14      0.14      0.18      0.01         0.01
  SERVICE_6668                0.27      0.27      0.34      0.01         0.01
  SERVICE_6840                0.12      0.12      0.13      0.01         0.01
  SERVICE_6933                0.01      0.01      0.56      0.01         0.01
  SERVICE_695                 0.01      0.01      0.01      0.21         0.01
  SERVICE_697                 0.08      0.08      0.11      0.41         0.01
  SERVICE_7001                0.34      0.34      0.38      0.01         0.01
  SERVICE_7173                0.01      0.01      0.36      0.01         0.01
  SERVICE_7253                0.01      0.01      0.05      0.01         0.01
  SERVICE_7295                0.18      0.18      0.20      0.01         0.01
  SERVICE_7364                0.18      0.18      0.18      0.47         0.18
  SERVICE_7377                0.34      0.34      0.53      0.31         0.31
  SERVICE_7495                0.14      0.14      0.14      0.12         0.12
  SERVICE_753                 0.35      0.35      0.36      0.01         0.01
  SERVICE_755                 0.02      0.02      0.10      0.01         0.01
  SERVICE_7825                0.15      0.15      0.68      0.01         0.01
  SERVICE_7831                0.35      0.35      0.44      0.01         0.01
  SERVICE_7891                0.01      0.04      0.01      0.23         0.01
  SERVICE_7907                0.69      0.69      0.69      0.40         0.40
  SERVICE_8103                0.20      0.20      0.32      0.01         0.01
  SERVICE_8461                0.01      0.01      0.60      0.01         0.01
  SERVICE_8531                0.25      0.25      0.37      0.01         0.01
  SERVICE_875                 0.16      0.16      0.16      0.60         0.07
  SERVICE_879                 0.15      0.15      0.20      0.54         0.01
  SERVICE_979                 0.34      0.34      0.34      0.19         0.16
  UNPAVED_DITCH_48            0.13      0.13      0.13      0.01         0.06
  

  Analysis begun on:  Wed Jun 24 12:02:33 2026
  Analysis ended on:  Wed Jun 24 12:02:36 2026
  Total elapsed time: 00:00:03