
  EPA STORM WATER MANAGEMENT MODEL - VERSION 5.2 (Build 5.2.4)
  ------------------------------------------------------------

   Allen Watershed - 10yr/24hr Storm Event 
  WARNING 04: minimum elevation drop used for Conduit 09204000C3
  
  *************
  Element Count
  *************
  Number of rain gages ...... 1
  Number of subcatchments ... 46
  Number of nodes ........... 277
  Number of links ........... 276
  Number of pollutants ...... 0
  Number of land uses ....... 0
  
  
  ****************
  Raingage Summary
  ****************
                                                      Data       Recording
  Name                 Data Source                    Type       Interval 
  ------------------------------------------------------------------------
  10YR~CONSTANT        RN#4                           VOLUME      15 min.
  
  
  ********************
  Subcatchment Summary
  ********************
  Name                       Area     Width   %Imperv    %Slope Rain Gage            Outlet              
  -----------------------------------------------------------------------------------------------------------
  09204000D1#1             227.50   2840.00     52.10    7.1600 10YR~CONSTANT        09204000D1          
  09204004R0#1             193.12   2844.00     51.20    5.5700 10YR~CONSTANT        09204004R0          
  09292003R0#1              49.10   1000.00     57.60    6.4500 10YR~CONSTANT        09292003R0          
  09292004R0#1              40.24   1840.00     73.90    5.8700 10YR~CONSTANT        09292004R0          
  09292006R0#1              49.63   5670.00     61.00    5.5700 10YR~CONSTANT        09292006R0          
  09294003R0#1             185.35   3000.00     47.30    4.9600 10YR~CONSTANT        09294003R0          
  09294007R0#1             105.41   2660.00     47.10    5.2800 10YR~CONSTANT        09294007R0          
  09321002R0#1              84.06   3230.00     38.40    3.5100 10YR~CONSTANT        09321002R0          
  09321005R0#1              52.17   2700.00     24.40    7.7800 10YR~CONSTANT        09321005R0          
  09321008R0#1              86.81   3800.00     16.00    6.5500 10YR~CONSTANT        09321008R0          
  09323003R0#1             104.16   4725.00     16.40    4.5900 10YR~CONSTANT        09323003R0          
  09314002R0#1              51.31   2700.00     32.40    4.9600 10YR~CONSTANT        09314002R0          
  09323011R0#1              34.75   2554.00     25.90    4.8600 10YR~CONSTANT        09323011R0          
  09322004R0#1              99.50   5160.00     35.70    4.6900 10YR~CONSTANT        09322004R0          
  09292008R0#1              60.66   3500.00     34.00    6.2500 10YR~CONSTANT        09292008R0          
  09203002R0#1             109.08   2520.00     33.50    7.6200 10YR~CONSTANT        09203002R0          
  09203013R0#1              52.30   1875.00     37.00    8.2900 10YR~CONSTANT        09203013R0          
  09301002R0#1             126.08   4950.00     31.80    8.1700 10YR~CONSTANT        09301002R0          
  09194017R0#1              59.20   2500.00     32.20    6.6000 10YR~CONSTANT        09194017R0          
  09292011R0#1              69.09   4590.00     39.10    7.4500 10YR~CONSTANT        09292011R0          
  09301012R0#1              68.07   3840.00     34.20    8.4800 10YR~CONSTANT        09301012R0          
  09302012R0#1              46.27   2000.00     30.40    5.4600 10YR~CONSTANT        09302012R0          
  09193005R0#1              26.17   1462.00     32.60    4.2400 10YR~CONSTANT        09193005R0          
  09302017R0#1              98.25   1530.00     55.60    4.6800 10YR~CONSTANT        09302017R0          
  09251002R0#1              30.01   1160.00     49.50    6.5400 10YR~CONSTANT        09251002R0          
  09292013R0#1              38.19   3000.00     32.70    6.8700 10YR~CONSTANT        09292013R0          
  09292017R0#1             114.50   2913.00     33.20    7.0600 10YR~CONSTANT        09292017R0          
  09304004R0#1              45.92   1360.00     36.60    6.3600 10YR~CONSTANT        09304004R0          
  09304009R0#1             201.51   2000.00     67.00    5.8900 10YR~CONSTANT        09304009R0          
  09303001R0#1              66.83   3420.00     56.50    7.3500 10YR~CONSTANT        09303001R0          
  09303017R0#1              89.18   6318.00     43.00    7.0400 10YR~CONSTANT        09303017R0          
  09293009R0#1              78.47   1625.00     29.80    6.5900 10YR~CONSTANT        09293009R0          
  09293014R0#1              47.82   2400.00     33.80    6.9900 10YR~CONSTANT        09293014R0          
  09311002R0#1              61.95   1200.00     36.70    5.5800 10YR~CONSTANT        09311002R0          
  09311004R0#1              15.01   1494.00     35.00    4.6300 10YR~CONSTANT        09311004R0          
  09321010R0#1              31.24   2900.00     42.10    5.6100 10YR~CONSTANT        09321010R0          
  09321028R0#1             101.96   5890.00     37.50    3.2400 10YR~CONSTANT        09321028R0          
  09321017R0#1              79.39   3800.00     57.50    4.2000 10YR~CONSTANT        09321017R0          
  09321032R0#1              27.94   3000.00     52.10    7.6200 10YR~CONSTANT        09321032R0          
  09321035R0#1               7.67    330.00     54.90    6.4200 10YR~CONSTANT        09321035R0          
  09321037R0#1              22.95   1346.00     23.10    4.7500 10YR~CONSTANT        09321037R0          
  09294014R0#1              33.28    575.00     41.10    3.8200 10YR~CONSTANT        09294014R0          
  09294013R0#1              20.03   1330.00     66.00    7.3700 10YR~CONSTANT        09294013R0          
  09312002R0#1              90.79   3420.00     55.00    5.1000 10YR~CONSTANT        09312002R0          
  09312020R0#1              79.11   2000.00     37.00  662.6000 10YR~CONSTANT        09312020R0          
  09312025R0#1              22.60   4600.00     67.30    4.9100 10YR~CONSTANT        09312025R0          
  
  
  ************
  Node Summary
  ************
                                           Invert      Max.    Ponded    External
  Name                 Type                 Elev.     Depth      Area    Inflow  
  -------------------------------------------------------------------------------
  09204000D2           JUNCTION            761.30     16.19       0.0    Yes
  09204000D3           JUNCTION            761.30      8.56       0.0    Yes
  09204001R0           JUNCTION            761.74     12.55       0.0    Yes
  09204001D1           JUNCTION            762.20     12.12       0.0    Yes
  09204002R0           JUNCTION            762.41     14.68       0.0    Yes
  09204003R0           JUNCTION            764.48     15.46       0.0    Yes
  09204004R0           JUNCTION            766.79     12.59       0.0    Yes
  09204005R0           JUNCTION            768.78     10.61       0.0    Yes
  09204006R0           JUNCTION            771.40     10.34       0.0    Yes
  09292001R0           JUNCTION            775.16     11.50       0.0    Yes
  09292001D1           JUNCTION            778.75     12.02       0.0    Yes
  09292001D2           JUNCTION            779.22     11.50       0.0    Yes
  09292001D3           JUNCTION            780.09     11.00       0.0    Yes
  09292002R0           JUNCTION            780.64     14.83       0.0    Yes
  09292002D1           JUNCTION            783.09     10.20       0.0    Yes
  09292003R0           JUNCTION            783.42     10.25       0.0    Yes
  09292004R0           JUNCTION            784.65     12.19       0.0    Yes
  09292004D1           JUNCTION            786.89     11.08       0.0    Yes
  09292004D2           JUNCTION            787.74      9.07       0.0    Yes
  09292005R0           JUNCTION            790.54      7.50       0.0    Yes
  09292005D1           JUNCTION            791.84     10.50       0.0    Yes
  09292005D2           JUNCTION            792.90      9.51       0.0    Yes
  09292006R0           JUNCTION            794.02     15.20       0.0    Yes
  09292006D1           JUNCTION            795.00     13.88       0.0    Yes
  09292006D2           JUNCTION            795.17     12.93       0.0    Yes
  09294001R0           JUNCTION            795.52     12.51       0.0    Yes
  09294001D1           JUNCTION            796.23      9.64       0.0    Yes
  09294002R0           JUNCTION            797.18      8.52       0.0    Yes
  09294003R0           JUNCTION            798.50      9.12       0.0    Yes
  09294004R0           JUNCTION            800.56      8.48       0.0    Yes
  09294005R0           JUNCTION            802.65      8.46       0.0    Yes
  09294006R0           JUNCTION            805.90      8.97       0.0    Yes
  09294007R0           JUNCTION            807.28      9.27       0.0    Yes
  09294008R0           JUNCTION            809.51      7.59       0.0    Yes
  09321000D1           JUNCTION            811.18     10.63       0.0    Yes
  09321001R0           JUNCTION            811.50     11.01       0.0    Yes
  09321002R0           JUNCTION            815.69     12.00       0.0    Yes
  09321003R0           JUNCTION            816.97     11.36       0.0    Yes
  09321004R0           JUNCTION            818.13     10.72       0.0    Yes
  09321005R0           JUNCTION            821.54      8.94       0.0    Yes
  09321006R0           JUNCTION            824.02      9.36       0.0    Yes
  09321007R0           JUNCTION            826.02      8.84       0.0    Yes
  09321008R0           JUNCTION            832.84      8.69       0.0    Yes
  09324000D1           JUNCTION            840.26      8.00       0.0    Yes
  09324000D2           JUNCTION            844.33      8.41       0.0    Yes
  09324000D3           JUNCTION            845.46      6.54       0.0    Yes
  09324000D4           JUNCTION            846.67      6.01       0.0    Yes
  09324000D5           JUNCTION            847.28      7.00       0.0    Yes
  09324000D6           JUNCTION            847.78      7.00       0.0    Yes
  09324000D7           JUNCTION            849.84      5.16       0.0    Yes
  09324000D8           JUNCTION            849.88      5.80       0.0    Yes
  09324000D9           JUNCTION            850.21      8.50       0.0    Yes
  09324000DA           JUNCTION            850.45      7.70       0.0    Yes
  09324000DB           JUNCTION            854.26     22.05       0.0    Yes
  09324001R0           JUNCTION            856.21     20.42       0.0    Yes
  09324001D1           JUNCTION            859.70     14.66       0.0    Yes
  09324002R0           JUNCTION            862.76     10.67       0.0    Yes
  09324003R0           JUNCTION            868.00     14.13       0.0    Yes
  09323001R0           JUNCTION            870.41     13.37       0.0    Yes
  09323002R0           JUNCTION            871.73     21.25       0.0    Yes
  09323003R0           JUNCTION            877.88     17.92       0.0    Yes
  09323004R0           JUNCTION            879.18     20.89       0.0    Yes
  09323005R0           JUNCTION            881.47     21.74       0.0    Yes
  09323006R0           JUNCTION            890.00     11.43       0.0    Yes
  09323007R0           JUNCTION            895.19      8.48       0.0    Yes
  09323008R0           JUNCTION            900.40      8.01       0.0    Yes
  09314001R0           JUNCTION            902.02      9.80       0.0    Yes
  09314002R0           JUNCTION            902.18     10.81       0.0    Yes
  09324004R0           JUNCTION            868.30      4.68       0.0    Yes
  09323009R0           JUNCTION            868.70     12.97       0.0    Yes
  09323010R0           JUNCTION            869.48     19.27       0.0    Yes
  09323011R0           JUNCTION            872.51     21.33       0.0    Yes
  09323012R0           JUNCTION            876.02     19.27       0.0    Yes
  09323013R0           JUNCTION            879.12     21.89       0.0    Yes
  09323014R0           JUNCTION            881.16     17.23       0.0    Yes
  09323015R0           JUNCTION            884.15     16.58       0.0    Yes
  09322001R0           JUNCTION            885.46      7.15       0.0    Yes
  09322002R0           JUNCTION            886.68      7.12       0.0    Yes
  09322003R0           JUNCTION            887.16      8.11       0.0    Yes
  09322004R0           JUNCTION            890.14      7.10       0.0    Yes
  09292007R0           JUNCTION            785.72     10.31       0.0    Yes
  09292008R0           JUNCTION            790.40     15.24       0.0    Yes
  09292009R0           JUNCTION            802.01     10.94       0.0    Yes
  09292010R0           JUNCTION            813.03     14.60       0.0    Yes
  09203001R0           JUNCTION            825.51      9.83       0.0    Yes
  09203002R0           JUNCTION            836.00      6.68       0.0    Yes
  09203003R0           JUNCTION            841.00     10.05       0.0    Yes
  09203004R0           JUNCTION            846.40      7.99       0.0    Yes
  09203005R0           JUNCTION            849.50      6.17       0.0    Yes
  09203006R0           JUNCTION            852.76      7.70       0.0    Yes
  09203007R0           JUNCTION            857.44      8.02       0.0    Yes
  09203008R0           JUNCTION            858.57     12.70       0.0    Yes
  09203009R0           JUNCTION            861.90     13.40       0.0    Yes
  09203010R0           JUNCTION            868.38     15.49       0.0    Yes
  09203011R0           JUNCTION            870.06     16.77       0.0    Yes
  09203012R0           JUNCTION            877.53     16.49       0.0    Yes
  09203013R0           JUNCTION            884.22     16.59       0.0    Yes
  09301002R0           JUNCTION            831.00      5.96       0.0    Yes
  09301003R0           JUNCTION            831.78      8.35       0.0    Yes
  09301004R0           JUNCTION            837.21      9.01       0.0    Yes
  09301005R0           JUNCTION            838.50      8.72       0.0    Yes
  09301006R0           JUNCTION            842.31     13.69       0.0    Yes
  09301007R0           JUNCTION            847.49     12.88       0.0    Yes
  09194001R0           JUNCTION            848.31     12.58       0.0    Yes
  09194002R0           JUNCTION            855.18      6.03       0.0    Yes
  09194003R0           JUNCTION            855.71      7.16       0.0    Yes
  09194004R0           JUNCTION            856.05      7.47       0.0    Yes
  09194005R0           JUNCTION            856.51      5.99       0.0    Yes
  09194006R0           JUNCTION            857.18     14.68       0.0    Yes
  09194007R0           JUNCTION            857.77     14.69       0.0    Yes
  09194008R0           JUNCTION            859.07     14.64       0.0    Yes
  09194009R0           JUNCTION            860.64     15.41       0.0    Yes
  09194010R0           JUNCTION            860.92     13.31       0.0    Yes
  09194011R0           JUNCTION            862.94     10.02       0.0    Yes
  09194012R0           JUNCTION            863.31     10.00       0.0    Yes
  09194013R0           JUNCTION            864.89     10.71       0.0    Yes
  09194014R0           JUNCTION            865.00      9.50       0.0    Yes
  09194015R0           JUNCTION            871.61      6.25       0.0    Yes
  09194016R0           JUNCTION            873.73      6.67       0.0    Yes
  09194017R0           JUNCTION            877.15      8.52       0.0    Yes
  09292011R0           JUNCTION            804.51      5.22       0.0    Yes
  09292012R0           JUNCTION            810.04     18.43       0.0    Yes
  09301008R0           JUNCTION            822.00      7.07       0.0    Yes
  09301009R0           JUNCTION            825.75     24.56       0.0    Yes
  09301010R0           JUNCTION            830.39      8.76       0.0    Yes
  09301010D1           JUNCTION            834.76      7.85       0.0    Yes
  09301011R0           JUNCTION            843.49     24.25       0.0    Yes
  09301012R0           JUNCTION            860.00      9.74       0.0    Yes
  09301013R0           JUNCTION            866.00      6.50       0.0    Yes
  09301014R0           JUNCTION            868.00     23.50       0.0    Yes
  09302001R0           JUNCTION            875.00     17.58       0.0    Yes
  09302002R0           JUNCTION            877.69     11.98       0.0    Yes
  09302003R0           JUNCTION            885.55     13.22       0.0    Yes
  09302004R0           JUNCTION            888.61      8.28       0.0    Yes
  09302005R0           JUNCTION            890.01      6.54       0.0    Yes
  09302006R0           JUNCTION            891.61      9.51       0.0    Yes
  09302007R0           JUNCTION            892.02     14.21       0.0    Yes
  09302008R0           JUNCTION            892.14     25.91       0.0    Yes
  09302009R0           JUNCTION            892.37     35.69       0.0    Yes
  09302010R0           JUNCTION            892.46     35.48       0.0    Yes
  09302011R0           JUNCTION            893.70     17.56       0.0    Yes
  09302012R0           JUNCTION            893.76     16.13       0.0    Yes
  09302013R0           JUNCTION            896.90     11.22       0.0    Yes
  09302014R0           JUNCTION            900.95     11.92       0.0    Yes
  09193001R0           JUNCTION            911.00     12.27       0.0    Yes
  09193002R0           JUNCTION            911.60     11.46       0.0    Yes
  09193003R0           JUNCTION            912.85     11.33       0.0    Yes
  09193004R0           JUNCTION            913.32      9.72       0.0    Yes
  09193005R0           JUNCTION            913.94     10.01       0.0    Yes
  09302015R0           JUNCTION            893.87     15.68       0.0    Yes
  09302016R0           JUNCTION            894.12      8.94       0.0    Yes
  09302017R0           JUNCTION            894.54      9.65       0.0    Yes
  09251001R0           JUNCTION            900.85     17.69       0.0    Yes
  09251002R0           JUNCTION            904.75     21.16       0.0    Yes
  09292013R0           JUNCTION            793.50     11.21       0.0    Yes
  09292014R0           JUNCTION            794.69     11.68       0.0    Yes
  09292015R0           JUNCTION            800.12      9.22       0.0    Yes
  09292016R0           JUNCTION            809.35      9.41       0.0    Yes
  09292017R0           JUNCTION            811.65     11.84       0.0    Yes
  09301015R0           JUNCTION            817.88     12.21       0.0    Yes
  09304001R0           JUNCTION            824.60      5.72       0.0    Yes
  09304002R0           JUNCTION            826.60      8.00       0.0    Yes
  09304002D1           JUNCTION            829.02      8.00       0.0    Yes
  09304003R0           JUNCTION            836.27     13.38       0.0    Yes
  09304004R0           JUNCTION            851.80     26.14       0.0    Yes
  09304005R0           JUNCTION            853.57     30.73       0.0    Yes
  09304006R0           JUNCTION            856.70     25.88       0.0    Yes
  09304007R0           JUNCTION            860.50     21.11       0.0    Yes
  09304008R0           JUNCTION            860.59     11.17       0.0    Yes
  09304009R0           JUNCTION            861.76     10.38       0.0    Yes
  09304010R0           JUNCTION            866.55      9.71       0.0    Yes
  09303001R0           JUNCTION            874.39     13.51       0.0    Yes
  09303002R0           JUNCTION            875.90     17.97       0.0    Yes
  09303003R0           JUNCTION            877.02     15.51       0.0    Yes
  09303004R0           JUNCTION            879.43     10.18       0.0    Yes
  09303005R0           JUNCTION            883.61      9.00       0.0    Yes
  09303006R0           JUNCTION            885.06      9.54       0.0    Yes
  09303007R0           JUNCTION            888.56      8.47       0.0    Yes
  09303008R0           JUNCTION            890.04      8.23       0.0    Yes
  09303009R0           JUNCTION            892.00      8.23       0.0    Yes
  09303010R0           JUNCTION            894.35      9.26       0.0    Yes
  09303011R0           JUNCTION            894.71      9.34       0.0    Yes
  09303012R0           JUNCTION            900.06     17.86       0.0    Yes
  09303013R0           JUNCTION            901.39     15.98       0.0    Yes
  09303014R0           JUNCTION            906.51     17.05       0.0    Yes
  09303015R0           JUNCTION            908.35     13.99       0.0    Yes
  09303016R0           JUNCTION            909.97     13.94       0.0    Yes
  09303017R0           JUNCTION            910.65     11.95       0.0    Yes
  09294009R0           JUNCTION            797.13     11.35       0.0    Yes
  09294010R0           JUNCTION            798.85      8.75       0.0    Yes
  09294011R0           JUNCTION            799.65      8.81       0.0    Yes
  09294012R0           JUNCTION            804.23      5.89       0.0    Yes
  09293001R0           JUNCTION            809.87     10.75       0.0    Yes
  09293002R0           JUNCTION            812.30      5.20       0.0    Yes
  09293003R0           JUNCTION            813.47      8.42       0.0    Yes
  09293004R0           JUNCTION            814.59      9.97       0.0    Yes
  09293005R0           JUNCTION            818.02     12.20       0.0    Yes
  09293006R0           JUNCTION            822.35      9.34       0.0    Yes
  09293007R0           JUNCTION            829.00     20.50       0.0    Yes
  09293008R0           JUNCTION            836.45      9.28       0.0    Yes
  09293009R0           JUNCTION            837.28      8.65       0.0    Yes
  09293010R0           JUNCTION            843.20     15.65       0.0    Yes
  09293011R0           JUNCTION            845.07     13.36       0.0    Yes
  09293012R0           JUNCTION            856.90      9.86       0.0    Yes
  09293013R0           JUNCTION            858.12      8.80       0.0    Yes
  09293014R0           JUNCTION            862.01     13.09       0.0    Yes
  09293015R0           JUNCTION            863.56      6.29       0.0    Yes
  09293016R0           JUNCTION            864.76      6.07       0.0    Yes
  09293017R0           JUNCTION            865.82      5.95       0.0    Yes
  09293018R0           JUNCTION            866.71      6.79       0.0    Yes
  09293019R0           JUNCTION            872.79     15.53       0.0    Yes
  09304011R0           JUNCTION            873.79     15.21       0.0    Yes
  09304012R0           JUNCTION            877.24     10.50       0.0    Yes
  09304013R0           JUNCTION            877.76     10.80       0.0    Yes
  09311001R0           JUNCTION            879.44     16.44       0.0    Yes
  09311002R0           JUNCTION            882.98      8.02       0.0    Yes
  09311003R0           JUNCTION            884.09     18.44       0.0    Yes
  09311004R0           JUNCTION            885.18     20.01       0.0    Yes
  09321010R0           JUNCTION            873.09      5.25       0.0
  09321009R0           JUNCTION            870.50     15.27       0.0
  09321028R0           JUNCTION            841.99      5.59       0.0
  09321027R0           JUNCTION            837.35      6.97       0.0
  09321026R0           JUNCTION            836.00      6.61       0.0
  09321025R0           JUNCTION            833.31      6.86       0.0
  09321024R0           JUNCTION            828.89      8.19       0.0
  09321023R0           JUNCTION            828.86      6.66       0.0
  09321022R0           JUNCTION            828.14      6.38       0.0
  09321021R0           JUNCTION            825.54      6.45       0.0
  09321020R0           JUNCTION            824.24      4.15       0.0
  09321019R0           JUNCTION            823.43      4.26       0.0
  09321018R0           JUNCTION            822.42      6.83       0.0
  09321017R0           JUNCTION            822.27      6.40       0.0
  09321016R0           JUNCTION            820.81      4.73       0.0
  09321015R0           JUNCTION            820.60      5.73       0.0
  09321014R0           JUNCTION            819.14      5.54       0.0
  09321013R0           JUNCTION            817.67      5.74       0.0
  09321012R0           JUNCTION            817.25      6.45       0.0
  09321011R0           JUNCTION            816.86      4.82       0.0
  09321032R0           JUNCTION            817.61     11.29       0.0
  09321031R0           JUNCTION            815.40      8.79       0.0
  09321030R0           JUNCTION            814.78      8.64       0.0
  09321029R0           JUNCTION            813.38      9.00       0.0
  09321035R0           JUNCTION            814.30      4.03       0.0
  09321034R0           JUNCTION            812.27      6.00       0.0
  09321037R0           JUNCTION            819.15      3.70       0.0
  09321036R0           JUNCTION            814.30      8.00       0.0
  09294014R0           JUNCTION            808.28      5.12       0.0
  09294013R0           JUNCTION            810.26      7.60       0.0
  09312019R0           JUNCTION            932.40      3.79       0.0
  09312018R0           JUNCTION            927.30      7.09       0.0
  09312017R0           JUNCTION            924.40      8.15       0.0
  09312016R0           JUNCTION            921.96      7.81       0.0
  09312015R0           JUNCTION            918.75     12.10       0.0
  09312014R0           JUNCTION            916.40     12.91       0.0
  09312013R0           JUNCTION            913.95     15.01       0.0
  09312012R0           JUNCTION            912.52     12.14       0.0
  09312011R0           JUNCTION            911.88     12.08       0.0
  09312010R0           JUNCTION            911.40     12.07       0.0
  09312009R0           JUNCTION            910.75     12.54       0.0
  09312008R0           JUNCTION            910.49     13.13       0.0
  09312007R0           JUNCTION            908.34     14.46       0.0
  09312006R0           JUNCTION            907.99     14.29       0.0
  09312005R0           JUNCTION            905.90     11.91       0.0
  09312004R0           JUNCTION            905.55     11.33       0.0
  09312003R0           JUNCTION            904.81     11.57       0.0
  09312002R0           JUNCTION            900.54     16.17       0.0
  09312001R0           JUNCTION            899.95     17.60       0.0
  09303020R0           JUNCTION            898.83     12.77       0.0
  09303019R0           JUNCTION            896.71     17.09       0.0
  09303018R0           JUNCTION            895.41     20.60       0.0
  09312020R0           JUNCTION            935.52      6.50       0.0
  09312025R0           JUNCTION            909.47     10.06       0.0
  09312024R0           JUNCTION            909.22     10.29       0.0
  09312023R0           JUNCTION            909.16      9.73       0.0
  09312022R0           JUNCTION            903.23      9.97       0.0
  09312021R0           JUNCTION            901.92     14.50       0.0
  09204000D1           OUTFALL             760.40      9.00       0.0    Yes
  
  
  ************
  Link Summary
  ************
  Name             From Node        To Node          Type            Length    %Slope Roughness
  ---------------------------------------------------------------------------------------------
  09204000C2       09204000D2       09204000D1       CONDUIT          270.0    0.3333    0.0350
  09204000C3       09204000D3       09204000D2       CONDUIT           91.0    0.0011    0.0150
  09204001C0       09204001R0       09204000D3       CONDUIT          140.0    0.3143    0.0200
  09204001C1       09204001D1       09204001R0       CONDUIT          147.0    0.3129    0.0200
  09204002C0       09204002R0       09204001D1       CONDUIT           32.0    0.6563    0.0200
  09204003C0       09204003R0       09204002R0       CONDUIT          308.0    0.6721    0.0200
  09204004C0       09204004R0       09204003R0       CONDUIT          345.0    0.6696    0.0200
  09204005C0       09204005R0       09204004R0       CONDUIT          298.0    0.6678    0.0200
  09204006C0       09204006R0       09204005R0       CONDUIT          393.0    0.6667    0.0200
  09292001C0       09292001R0       09204006R0       CONDUIT          560.0    0.6714    0.0200
  09292001C1       09292001D1       09292001R0       CONDUIT          530.0    0.6774    0.0200
  09292001C2       09292001D2       09292001D1       CONDUIT           70.0    0.6714    0.0200
  09292001C3       09292001D3       09292001D2       CONDUIT           17.0    0.7647    0.0200
  09292002C0       09292002R0       09292001D3       CONDUIT           73.0    0.7534    0.0200
  09292002C1       09292002D1       09292002R0       CONDUIT          350.0    0.7000    0.0200
  09292003C0       09292003R0       09292002D1       CONDUIT           83.0    0.3976    0.0200
  09292004C0       09292004R0       09292003R0       CONDUIT          307.0    0.4007    0.0200
  09292004C1       09292004D1       09292004R0       CONDUIT           37.0    1.0001    0.0150
  09292004C2       09292004D2       09292004D1       CONDUIT           83.0    1.0242    0.0200
  09292005C0       09292005R0       09292004D2       CONDUIT          280.0    1.0001    0.0150
  09292005C1       09292005D1       09292005R0       CONDUIT          130.0    1.0001    0.0150
  09292005C2       09292005D2       09292005D1       CONDUIT          101.0    1.0001    0.0200
  09292006C0       09292006R0       09292005D2       CONDUIT          167.0    0.6707    0.0150
  09292006C1       09292006D1       09292006R0       CONDUIT          146.0    0.6712    0.0150
  09292006C2       09292006D2       09292006D1       CONDUIT           37.0    0.4595    0.0150
  09294001C0       09294001R0       09292006D2       CONDUIT           55.0    0.6364    0.0150
  09294001C1       09294001D1       09294001R0       CONDUIT          112.0    0.6339    0.0150
  09294002C0       09294002R0       09294001D1       CONDUIT          165.0    0.5758    0.0200
  09294003C0       09294003R0       09294002R0       CONDUIT          230.0    0.5739    0.0200
  09294004C0       09294004R0       09294003R0       CONDUIT          361.0    0.5706    0.0200
  09294005C0       09294005R0       09294004R0       CONDUIT          364.0    0.5742    0.0200
  09294006C0       09294006R0       09294005R0       CONDUIT          602.0    0.5399    0.0200
  09294007C0       09294007R0       09294006R0       CONDUIT          255.0    0.5412    0.0200
  09294008C0       09294008R0       09294007R0       CONDUIT          530.0    0.4208    0.0200
  09321000C1       09321000D1       09294008R0       CONDUIT          600.0    0.2783    0.0200
  09321001C0       09321001R0       09321000D1       CONDUIT           75.0    0.4267    0.0150
  09321002C0       09321002R0       09321001R0       CONDUIT          820.0    0.4476    0.0150
  09321003C0       09321003R0       09321002R0       CONDUIT           23.0    0.6522    0.0150
  09321004C0       09321004R0       09321003R0       CONDUIT          179.0    0.6481    0.0150
  09321005C0       09321005R0       09321004R0       CONDUIT          578.0    0.5900    0.0150
  09321006C0       09321006R0       09321005R0       CONDUIT          420.0    0.5905    0.0150
  09321007C0       09321007R0       09321006R0       CONDUIT          400.0    0.5000    0.0150
  09321008C0       09321008R0       09321007R0       CONDUIT          410.0    1.6636    0.0150
  09324000C1       09324000D1       09321008R0       CONDUIT          179.0    4.1488    0.0150
  09324000C3       09324000D3       09324000D2       CONDUIT           18.0    0.7778    0.0150
  09324000C4       09324000D4       09324000D3       CONDUIT          151.0    0.8014    0.0350
  09324000C5       09324000D5       09324000D4       CONDUIT           42.0    1.4525    0.0150
  09324000C6       09324000D6       09324000D5       CONDUIT           35.0    1.4287    0.0350
  09324000C7       09324000D7       09324000D6       CONDUIT          245.0    0.6000    0.0350
  09324000C8       09324000D8       09324000D7       CONDUIT            6.0    0.6667    0.0150
  09324000C9       09324000D9       09324000D8       CONDUIT           55.0    0.6000    0.0350
  09324000CA       09324000DA       09324000D9       CONDUIT           24.0    1.0001    0.0150
  09324000CB       09324000DB       09324000DA       CONDUIT          381.0    1.0001    0.0150
  09324001C0       09324001R0       09324000DB       CONDUIT          195.0    1.0001    0.0150
  09324001C1       09324001D1       09324001R0       CONDUIT          349.0    1.0001    0.0150
  09324002C0       09324002R0       09324001D1       CONDUIT          306.0    1.0001    0.0150
  09324003C0       09324003R0       09324002R0       CONDUIT           92.0    4.6899    0.0150
  09323001C0       09323001R0       09324003R0       CONDUIT           85.0    2.8364    0.0150
  09323002C0       09323002R0       09323001R0       CONDUIT          395.0    0.3342    0.0150
  09323003C0       09323003R0       09323002R0       CONDUIT          440.0    1.3979    0.0150
  09323004C0       09323004R0       09323003R0       CONDUIT          180.0    0.7222    0.0150
  09323005C0       09323005R0       09323004R0       CONDUIT          225.0    1.0178    0.0150
  09323006C0       09323006R0       09323005R0       CONDUIT          620.0    1.3759    0.0150
  09323007C0       09323007R0       09323006R0       CONDUIT          435.0    1.1932    0.0150
  09323008C0       09323008R0       09323007R0       CONDUIT          805.0    0.6472    0.0150
  09314001C0       09314001R0       09323008R0       CONDUIT          180.0    0.9000    0.0150
  09314002C0       09314002R0       09314001R0       CONDUIT          125.0    0.1280    0.0150
  09323009C0       09323009R0       09324004R0       CONDUIT          115.0    0.3478    0.0150
  09323010C0       09323010R0       09323009R0       CONDUIT          240.0    0.3250    0.0150
  09323011C0       09323011R0       09323010R0       CONDUIT          265.0    1.1435    0.0150
  09323012C0       09323012R0       09323011R0       CONDUIT          290.0    1.2104    0.0150
  09323013C0       09323013R0       09323012R0       CONDUIT          310.0    1.0001    0.0150
  09323014C0       09323014R0       09323013R0       CONDUIT          114.0    1.7898    0.0150
  09323015C0       09323015R0       09323014R0       CONDUIT          100.0    2.9913    0.0150
  09322001C0       09322001R0       09323015R0       CONDUIT          290.0    0.4517    0.0150
  09322002C0       09322002R0       09322001R0       CONDUIT          320.0    0.3813    0.0150
  09322003C0       09322003R0       09322002R0       CONDUIT          120.0    0.4000    0.0150
  09322004C0       09322004R0       09322003R0       CONDUIT          335.0    0.8896    0.0150
  09292007C0       09292007R0       09292003R0       CONDUIT          250.0    0.4920    0.0150
  09292008C0       09292008R0       09292007R0       CONDUIT          700.0    0.6686    0.0150
  09292009C0       09292009R0       09292008R0       CONDUIT          630.0    1.8432    0.0150
  09292010C0       09292010R0       09292009R0       CONDUIT          320.0    3.4458    0.0150
  09203001C0       09203001R0       09292010R0       CONDUIT          610.0    2.0463    0.0150
  09203002C0       09203002R0       09203001R0       CONDUIT          280.0    3.7491    0.0150
  09203003C0       09203003R0       09203002R0       CONDUIT          300.0    1.6669    0.0150
  09203004C0       09203004R0       09203003R0       CONDUIT          270.0    2.0004    0.0150
  09203005C0       09203005R0       09203004R0       CONDUIT          130.0    2.3853    0.0150
  09203006C0       09203006R0       09203005R0       CONDUIT           70.0    4.6622    0.0150
  09203007C0       09203007R0       09203006R0       CONDUIT          140.0    3.3447    0.0150
  09203008C0       09203008R0       09203007R0       CONDUIT           45.0    2.5119    0.0150
  09203009C0       09203009R0       09203008R0       CONDUIT          200.0    1.6652    0.0150
  09203010C0       09203010R0       09203009R0       CONDUIT          290.0    2.2350    0.0150
  09203011C0       09203011R0       09203010R0       CONDUIT          100.0    1.6802    0.0150
  09203012C0       09203012R0       09203011R0       CONDUIT          120.0    6.2371    0.0150
  09203013C0       09203013R0       09203012R0       CONDUIT          140.0    4.7840    0.0150
  09301003C0       09301003R0       09301002R0       CONDUIT          180.0    0.4333    0.0150
  09301004C0       09301004R0       09301003R0       CONDUIT          270.0    2.0115    0.0150
  09301005C0       09301005R0       09301004R0       CONDUIT           60.0    2.1505    0.0150
  09301006C0       09301006R0       09301005R0       CONDUIT          255.0    1.4943    0.0150
  09301007C0       09301007R0       09301006R0       CONDUIT          285.0    1.8178    0.0150
  09194001C0       09194001R0       09301007R0       CONDUIT           45.0    1.8225    0.0150
  09194002C0       09194002R0       09194001R0       CONDUIT           34.0    0.3824    0.0150
  09194003C0       09194003R0       09194002R0       CONDUIT           66.0    0.8031    0.0150
  09194004C0       09194004R0       09194003R0       CONDUIT           42.0    0.8096    0.0150
  09194005C0       09194005R0       09194004R0       CONDUIT          108.0    0.4259    0.0150
  09194006C0       09194006R0       09194005R0       CONDUIT          169.0    0.3965    0.0150
  09194007C0       09194007R0       09194006R0       CONDUIT          199.0    0.2965    0.0150
  09194008C0       09194008R0       09194007R0       CONDUIT           27.0    1.8522    0.0150
  09194009C0       09194009R0       09194008R0       CONDUIT           85.0    1.8474    0.0150
  09194010C0       09194010R0       09194009R0       CONDUIT           15.0    1.8670    0.0150
  09194011C0       09194011R0       09194010R0       CONDUIT          110.0    1.8367    0.0150
  09194012C0       09194012R0       09194011R0       CONDUIT           20.0    1.8503    0.0150
  09194013C0       09194013R0       09194012R0       CONDUIT          184.0    0.8587    0.0150
  09194014C0       09194014R0       09194013R0       CONDUIT           15.0    0.7334    0.0150
  09194015C0       09194015R0       09194014R0       CONDUIT          303.0    2.1820    0.0150
  09194016C0       09194016R0       09194015R0       CONDUIT           97.0    2.1861    0.0150
  09194017C0       09194017R0       09194016R0       CONDUIT          157.0    2.1789    0.0150
  09292011C0       09292011R0       09292008R0       CONDUIT          640.0    2.2052    0.0150
  09292012C0       09292012R0       09292011R0       CONDUIT          270.0    2.0486    0.0150
  09301008C0       09301008R0       09292012R0       CONDUIT          760.0    1.5739    0.0150
  09301009C0       09301009R0       09301008R0       CONDUIT          325.0    1.1539    0.0150
  09301010C0       09301010R0       09301009R0       CONDUIT          357.0    1.2998    0.0150
  09301010C1       09301010D1       09301010R0       CONDUIT          336.0    1.3007    0.0150
  09301011C0       09301011R0       09301010D1       CONDUIT          312.0    2.7992    0.0150
  09301012C0       09301012R0       09301011R0       CONDUIT          450.0    3.6714    0.0150
  09301013C0       09301013R0       09301012R0       CONDUIT          320.0    1.8753    0.0150
  09301014C0       09301014R0       09301013R0       CONDUIT          180.0    1.1112    0.0150
  09302001C0       09302001R0       09301014R0       CONDUIT          570.0    1.2282    0.0150
  09302002C0       09302002R0       09302001R0       CONDUIT          110.0    2.4462    0.0150
  09302003C0       09302003R0       09302002R0       CONDUIT          212.0    3.7101    0.0150
  09302004C0       09302004R0       09302003R0       CONDUIT           45.0    6.8158    0.0150
  09302005C0       09302005R0       09302004R0       CONDUIT          275.0    0.5091    0.0150
  09302006C0       09302006R0       09302005R0       CONDUIT          235.0    0.6809    0.0150
  09302007C0       09302007R0       09302006R0       CONDUIT          100.0    0.4100    0.0150
  09302008C0       09302008R0       09302007R0       CONDUIT           40.0    0.3000    0.0150
  09302009C0       09302009R0       09302008R0       CONDUIT           80.0    0.2875    0.0150
  09302010C0       09302010R0       09302009R0       CONDUIT           30.0    0.3000    0.0150
  09302011C0       09302011R0       09302010R0       CONDUIT          385.0    0.3221    0.0150
  09302012C0       09302012R0       09302011R0       CONDUIT           30.0    0.2000    0.0150
  09302013C0       09302013R0       09302012R0       CONDUIT           41.0    4.2722    0.0150
  09302014C0       09302014R0       09302013R0       CONDUIT          209.0    1.9382    0.0150
  09193001C0       09193001R0       09302014R0       CONDUIT          299.0    3.3631    0.0150
  09193002C0       09193002R0       09193001R0       CONDUIT           71.0    0.8451    0.0150
  09193003C0       09193003R0       09193002R0       CONDUIT          150.0    0.8334    0.0150
  09193004C0       09193004R0       09193003R0       CONDUIT          230.0    0.1391    0.0150
  09193005C0       09193005R0       09193004R0       CONDUIT          260.0    0.2385    0.0150
  09302015C0       09302015R0       09302012R0       CONDUIT           75.0    0.1467    0.0150
  09302016C0       09302016R0       09302015R0       CONDUIT          314.0    0.0796    0.0150
  09302017C0       09302017R0       09302016R0       CONDUIT          522.0    0.0805    0.0150
  09251001C0       09251001R0       09302017R0       CONDUIT          640.0    0.9860    0.0150
  09251002C0       09251002R0       09251001R0       CONDUIT          315.0    1.2382    0.0150
  09292013C0       09292013R0       09292004R0       CONDUIT          819.0    0.8523    0.0150
  09292014C0       09292014R0       09292013R0       CONDUIT          441.0    0.2698    0.0150
  09292015C0       09292015R0       09292014R0       CONDUIT          460.0    1.1805    0.0150
  09292016C0       09292016R0       09292015R0       CONDUIT          326.0    2.8324    0.0150
  09292017C0       09292017R0       09292016R0       CONDUIT          327.0    0.7034    0.0150
  09301015C0       09301015R0       09292017R0       CONDUIT          623.0    1.0001    0.0150
  09304001C0       09304001R0       09301015R0       CONDUIT          408.0    1.6473    0.0150
  09304002C0       09304002R0       09304001R0       CONDUIT          121.0    1.6531    0.0150
  09304002C1       09304002D1       09304002R0       CONDUIT          121.0    2.0004    0.0150
  09304003C0       09304003R0       09304002D1       CONDUIT          282.0    2.5718    0.0150
  09304004C0       09304004R0       09304003R0       CONDUIT         1021.0    1.5212    0.0150
  09304005C0       09304005R0       09304004R0       CONDUIT           89.0    1.9892    0.0150
  09304006C0       09304006R0       09304005R0       CONDUIT          156.0    2.0068    0.0150
  09304007C0       09304007R0       09304006R0       CONDUIT          190.0    2.0004    0.0150
  09304008C0       09304008R0       09304007R0       CONDUIT           30.0    0.3000    0.0150
  09304009C0       09304009R0       09304008R0       CONDUIT          215.0    0.5442    0.0150
  09304010C0       09304010R0       09304009R0       CONDUIT          370.0    1.2947    0.0150
  09303001C0       09303001R0       09304010R0       CONDUIT          355.0    2.2090    0.0150
  09303002C0       09303002R0       09303001R0       CONDUIT          110.0    1.3729    0.0150
  09303003C0       09303003R0       09303002R0       CONDUIT           42.0    1.6907    0.0150
  09303004C0       09303004R0       09303003R0       CONDUIT          183.0    1.3171    0.0150
  09303005C0       09303005R0       09303004R0       CONDUIT          314.0    1.3313    0.0150
  09303006C0       09303006R0       09303005R0       CONDUIT          112.0    1.2948    0.0150
  09303007C0       09303007R0       09303006R0       CONDUIT          230.0    1.5219    0.0150
  09303008C0       09303008R0       09303007R0       CONDUIT          101.0    1.4655    0.0150
  09303009C0       09303009R0       09303008R0       CONDUIT          152.0    1.2896    0.0150
  09303010C0       09303010R0       09303009R0       CONDUIT          184.0    1.2773    0.0150
  09303011C0       09303011R0       09303010R0       CONDUIT           32.0    0.8125    0.0150
  09303012C0       09303012R0       09303011R0       CONDUIT          332.0    1.2983    0.0150
  09303013C0       09303013R0       09303012R0       CONDUIT           72.0    1.8475    0.0150
  09303014C0       09303014R0       09303013R0       CONDUIT           93.0    5.5137    0.0150
  09303015C0       09303015R0       09303014R0       CONDUIT           77.0    2.2083    0.0150
  09303016C0       09303016R0       09303015R0       CONDUIT          103.0    1.4759    0.0150
  09303017C0       09303017R0       09303016R0       CONDUIT           15.0    4.5380    0.0150
  09294009C0       09294009R0       09292006R0       CONDUIT          257.0    1.2102    0.0150
  09294010C0       09294010R0       09294009R0       CONDUIT          203.0    0.8473    0.0150
  09294011C0       09294011R0       09294010R0       CONDUIT          160.0    0.5000    0.0150
  09294012C0       09294012R0       09294011R0       CONDUIT          140.0    3.2732    0.0150
  09293001C0       09293001R0       09294012R0       CONDUIT          277.0    2.0365    0.0150
  09293002C0       09293002R0       09293001R0       CONDUIT          334.0    0.4461    0.0150
  09293003C0       09293003R0       09293002R0       CONDUIT          345.0    0.3391    0.0150
  09293004C0       09293004R0       09293003R0       CONDUIT           82.0    1.3660    0.0150
  09293005C0       09293005R0       09293004R0       CONDUIT          284.0    1.2078    0.0150
  09293006C0       09293006R0       09293005R0       CONDUIT           91.0    4.7636    0.0150
  09293007C0       09293007R0       09293006R0       CONDUIT          520.0    1.2790    0.0150
  09293008C0       09293008R0       09293007R0       CONDUIT          160.0    4.6613    0.0150
  09293009C0       09293009R0       09293008R0       CONDUIT           65.0    1.2770    0.0150
  09293010C0       09293010R0       09293009R0       CONDUIT          469.0    1.2624    0.0150
  09293011C0       09293011R0       09293010R0       CONDUIT          109.0    1.7158    0.0150
  09293012C0       09293012R0       09293011R0       CONDUIT          427.0    2.6543    0.0150
  09293013C0       09293013R0       09293012R0       CONDUIT          220.0    0.5546    0.0150
  09293014C0       09293014R0       09293013R0       CONDUIT          186.0    2.0919    0.0150
  09293015C0       09293015R0       09293014R0       CONDUIT          117.0    1.3249    0.0150
  09293016C0       09293016R0       09293015R0       CONDUIT          159.0    0.7547    0.0150
  09293017C0       09293017R0       09293016R0       CONDUIT          138.0    0.7681    0.0150
  09293018C0       09293018R0       09293017R0       CONDUIT           49.0    1.8166    0.0150
  09293019C0       09293019R0       09293018R0       CONDUIT          350.0    1.7374    0.0150
  09304011C0       09304011R0       09293019R0       CONDUIT           32.0    3.1265    0.0150
  09304012C0       09304012R0       09304011R0       CONDUIT          165.0    2.0914    0.0150
  09304013C0       09304013R0       09304012R0       CONDUIT           50.0    1.0401    0.0150
  09311001C0       09311001R0       09304013R0       CONDUIT          180.0    0.9334    0.0150
  09311002C0       09311002R0       09311001R0       CONDUIT           95.0    3.7289    0.0150
  09311003C0       09311003R0       09311002R0       CONDUIT           67.0    1.6569    0.0150
  09311004C0       09311004R0       09311003R0       CONDUIT           72.0    1.5141    0.0150
  09324004C0       09324004R0       09324002R0       CONDUIT           29.0   13.2174    0.0150
  09324000C2       09324000D2       09324000D1       CONDUIT          250.0    1.6282    0.0150
  09301002C0       09301002R0       09203001R0       CONDUIT          350.0    1.5688    0.0150
  09321010C0       09321010R0       09321009R0       CONDUIT           70.0    3.7025    0.0150
  09321028C0       09321028R0       09321027R0       CONDUIT          340.0    1.3648    0.0150
  09321027C0       09321027R0       09321026R0       CONDUIT           70.0    1.9289    0.0150
  09321026C0       09321026R0       09321025R0       CONDUIT          190.0    1.4159    0.0150
  09321025C0       09321025R0       09321024R0       CONDUIT          350.0    1.2630    0.0150
  09321024C0       09321024R0       09321023R0       CONDUIT           90.0    0.0333    0.0150
  09321023C0       09321023R0       09321022R0       CONDUIT           50.0    1.4401    0.0150
  09321022C0       09321022R0       09321021R0       CONDUIT          150.0    1.7336    0.0150
  09321021C0       09321021R0       09321020R0       CONDUIT          300.0    0.4333    0.0150
  09321020C0       09321020R0       09321019R0       CONDUIT          230.0    0.3522    0.0150
  09321019C0       09321019R0       09321018R0       CONDUIT          270.0    0.3741    0.0150
  09321018C0       09321018R0       09321017R0       CONDUIT           60.0    0.2500    0.0150
  09321017C0       09321017R0       09321016R0       CONDUIT          300.0    0.4867    0.0150
  09321016C0       09321016R0       09321015R0       CONDUIT          230.0    0.0913    0.0150
  09321015C0       09321015R0       09321014R0       CONDUIT          170.0    0.8589    0.0150
  09321014C0       09321014R0       09321013R0       CONDUIT          160.0    0.9188    0.0150
  09321013C0       09321013R0       09321012R0       CONDUIT          360.0    0.1167    0.0150
  09321012C0       09321012R0       09321011R0       CONDUIT          330.0    0.1182    0.0150
  09321011C0       09321011R0       09321002R0       CONDUIT          430.0    0.2721    0.0150
  09321009C0       09321009R0       09321006R0       CONDUIT         1670.0    2.7843    0.0150
  09321032C0       09321032R0       09321031R0       CONDUIT          260.0    0.8500    0.0150
  09321031C0       09321031R0       09321030R0       CONDUIT           30.0    2.0671    0.0150
  09321030C0       09321030R0       09321029R0       CONDUIT          150.0    0.9334    0.0150
  09321029C0       09321029R0       09321001R0       CONDUIT           25.0    7.5414    0.0150
  09321035C0       09321035R0       09321034R0       CONDUIT          280.0    0.7250    0.0150
  09321037C0       09321037R0       09321036R0       CONDUIT          400.0    1.2126    0.0150
  09321036C0       09321036R0       09321000D1       CONDUIT          780.0    0.4000    0.0150
  09321034C0       09321034R0       09321001R0       CONDUIT          470.0    0.1638    0.0150
  09294014C0       09294014R0       09294007R0       CONDUIT          210.0    0.4762    0.0150
  09294013C0       09294013R0       09294007R0       CONDUIT          100.0    2.9813    0.0150
  09312019C0       09312019R0       09312018R0       CONDUIT          290.0    1.7589    0.0150
  09312018C0       09312018R0       09312017R0       CONDUIT          190.0    1.5265    0.0150
  09312017C0       09312017R0       09312016R0       CONDUIT          210.0    1.1620    0.0150
  09312016C0       09312016R0       09312015R0       CONDUIT          330.0    0.9728    0.0150
  09312015C0       09312015R0       09312014R0       CONDUIT          200.0    1.1751    0.0150
  09312014C0       09312014R0       09312013R0       CONDUIT          220.0    1.1137    0.0150
  09312013C0       09312013R0       09312012R0       CONDUIT           90.0    1.5891    0.0150
  09312012C0       09312012R0       09312011R0       CONDUIT           40.0    1.6002    0.0150
  09312011C0       09312011R0       09312010R0       CONDUIT           30.0    1.6002    0.0150
  09312010C0       09312010R0       09312009R0       CONDUIT          100.0    0.6500    0.0150
  09312009C0       09312009R0       09312008R0       CONDUIT           50.0    0.5200    0.0150
  09312008C0       09312008R0       09312007R0       CONDUIT           80.0    2.6885    0.0150
  09312007C0       09312007R0       09312006R0       CONDUIT           30.0    1.1667    0.0150
  09312006C0       09312006R0       09312005R0       CONDUIT          190.0    1.1001    0.0150
  09312005C0       09312005R0       09312004R0       CONDUIT           30.0    1.1667    0.0150
  09312004C0       09312004R0       09312003R0       CONDUIT           40.0    1.8503    0.0150
  09312003C0       09312003R0       09312002R0       CONDUIT          250.0    1.7082    0.0150
  09312002C0       09312002R0       09312001R0       CONDUIT           60.0    0.9834    0.0150
  09312001C0       09312001R0       09303020R0       CONDUIT          300.0    0.3733    0.0150
  09303020C0       09303020R0       09303019R0       CONDUIT          140.0    1.5145    0.0150
  09303019C0       09303019R0       09303018R0       CONDUIT          100.0    1.3001    0.0150
  09303018C0       09303018R0       09303008R0       CONDUIT          480.0    1.1188    0.0150
  09312020C0       09312020R0       09312019R0       CONDUIT          250.0    1.2481    0.0150
  09312025C0       09312025R0       09312024R0       CONDUIT           40.0    0.6250    0.0150
  09312024C0       09312024R0       09312023R0       CONDUIT           40.0    0.1500    0.0150
  09312023C0       09312023R0       09312022R0       CONDUIT          170.0    3.4904    0.0150
  09312022C0       09312022R0       09312021R0       CONDUIT          150.0    0.8734    0.0150
  09312021C0       09312021R0       09312002R0       CONDUIT           40.0    3.4521    0.0150
  
  
  *********************
  Cross Section Summary
  *********************
                                        Full     Full     Hyd.     Max.   No. of     Full
  Conduit          Shape               Depth     Area     Rad.    Width  Barrels     Flow
  ---------------------------------------------------------------------------------------
  09204000C2       NS_09204000C2        9.00   390.60     5.32    70.00        1  2918.89
  09204000C3       RECT_CLOSED          8.00    80.00     2.22    10.00        1    44.74
  09204001C0       CIRCULAR             8.50    56.75     2.12     8.50        1   390.68
  09204001C1       CIRCULAR             8.50    56.75     2.12     8.50        1   389.83
  09204002C0       RECT_CLOSED          8.50   117.56     2.63    13.83        1  1348.91
  09204003C0       CIRCULAR             8.50    56.75     2.12     8.50        1   571.31
  09204004C0       CIRCULAR             8.50    56.75     2.12     8.50        1   570.24
  09204005C0       CIRCULAR             8.50    56.75     2.12     8.50        1   569.48
  09204006C0       CIRCULAR             8.50    56.75     2.12     8.50        1   569.00
  09292001C0       CIRCULAR             8.50    56.75     2.12     8.50        1   571.03
  09292001C1       CIRCULAR             8.50    56.75     2.12     8.50        1   573.55
  09292001C2       CIRCULAR             8.50    56.75     2.12     8.50        1   571.03
  09292001C3       CIRCULAR             8.00    50.27     2.00     8.00        1   518.44
  09292002C0       CIRCULAR             8.00    50.27     2.00     8.00        1   514.60
  09292002C1       CIRCULAR             8.00    50.27     2.00     8.00        1   496.02
  09292003C0       CIRCULAR             8.00    50.27     2.00     8.00        1   373.82
  09292004C0       CIRCULAR             8.00    50.27     2.00     8.00        1   375.26
  09292004C1       RECT_CLOSED          7.50    81.22     2.22    10.83        1  1367.60
  09292004C2       RECT_CLOSED          8.00   108.00     2.51    13.50        1  1500.48
  09292005C0       RECT_CLOSED          7.50    81.22     2.22    10.83        1  1367.60
  09292005C1       RECT_CLOSED          7.50    81.22     2.22    10.83        1  1367.60
  09292005C2       CIRCULAR             6.00    28.27     1.50     6.00        1   275.29
  09292006C0       EGG                  7.00    25.01     1.35     4.67        1   248.10
  09292006C1       EGG                  7.00    25.01     1.35     4.67        1   248.21
  09292006C2       EGG                  7.00    25.01     1.35     4.67        1   205.35
  09294001C0       EGG                  7.00    25.01     1.35     4.67        1   241.67
  09294001C1       EGG                  7.00    25.01     1.35     4.67        1   241.21
  09294002C0       CIRCULAR             6.00    28.27     1.50     6.00        1   208.88
  09294003C0       CIRCULAR             6.00    28.27     1.50     6.00        1   208.55
  09294004C0       CIRCULAR             6.00    28.27     1.50     6.00        1   207.95
  09294005C0       CIRCULAR             6.00    28.27     1.50     6.00        1   208.59
  09294006C0       CIRCULAR             6.00    28.27     1.50     6.00        1   202.27
  09294007C0       CIRCULAR             6.00    28.27     1.50     6.00        1   202.51
  09294008C0       CIRCULAR             6.00    28.27     1.50     6.00        1   178.56
  09321000C1       CIRCULAR             6.00    28.27     1.50     6.00        1   145.23
  09321001C0       EGG                  9.92    50.24     1.92     6.61        1   501.41
  09321002C0       EGG                  9.92    50.24     1.92     6.61        1   513.54
  09321003C0       CIRCULAR             5.00    19.63     1.25     5.00        1   182.28
  09321004C0       CIRCULAR             5.00    19.63     1.25     5.00        1   181.71
  09321005C0       CIRCULAR             5.00    19.63     1.25     5.00        1   173.37
  09321006C0       CIRCULAR             5.00    19.63     1.25     5.00        1   173.45
  09321007C0       CIRCULAR             5.00    19.63     1.25     5.00        1   159.61
  09321008C0       CIRCULAR             5.00    19.63     1.25     5.00        1   291.14
  09324000C1       CIRCULAR             5.00    19.63     1.25     5.00        1   459.75
  09324000C3       RECT_CLOSED          4.42    30.59     1.35     6.92        1   326.20
  09324000C4       TRAPEZOIDAL          4.00    24.00     1.80    10.00        1   135.11
  09324000C5       CIRCULAR             4.00    12.57     1.00     4.00        1   150.04
  09324000C6       TRAPEZOIDAL          4.00    24.00     1.80    10.00        1   180.40
  09324000C7       TRAPEZOIDAL          4.00    24.00     1.80    10.00        1   116.91
  09324000C8       TRAPEZOIDAL          2.80    19.04     1.60     9.60        1   210.45
  09324000C9       TRAPEZOIDAL          5.00    35.00     2.17    12.00        1   192.83
  09324000CA       CIRCULAR             5.50    23.76     1.38     5.50        1   291.04
  09324000CB       CIRCULAR             5.50    23.76     1.38     5.50        1   291.04
  09324001C0       CIRCULAR             5.50    23.76     1.38     5.50        1   291.04
  09324001C1       CIRCULAR             5.50    23.76     1.38     5.50        1   291.04
  09324002C0       CIRCULAR             5.50    23.76     1.38     5.50        1   291.04
  09324003C0       CIRCULAR             4.50    15.90     1.12     4.50        1   369.09
  09323001C0       CIRCULAR             4.50    15.90     1.12     4.50        1   287.03
  09323002C0       CIRCULAR             4.50    15.90     1.12     4.50        1    98.52
  09323003C0       CIRCULAR             4.50    15.90     1.12     4.50        1   201.50
  09323004C0       CIRCULAR             4.50    15.90     1.12     4.50        1   144.84
  09323005C0       CIRCULAR             4.50    15.90     1.12     4.50        1   171.94
  09323006C0       CIRCULAR             3.50     9.62     0.88     3.50        1   102.28
  09323007C0       CIRCULAR             3.50     9.62     0.88     3.50        1    95.25
  09323008C0       CIRCULAR             3.00     7.07     0.75     3.00        1    46.50
  09314001C0       CIRCULAR             3.00     7.07     0.75     3.00        1    54.84
  09314002C0       CIRCULAR             3.00     7.07     0.75     3.00        1    20.68
  09323009C0       CIRCULAR             3.50     9.62     0.88     3.50        1    51.43
  09323010C0       CIRCULAR             3.50     9.62     0.88     3.50        1    49.71
  09323011C0       CIRCULAR             3.50     9.62     0.88     3.50        1    93.24
  09323012C0       CIRCULAR             3.50     9.62     0.88     3.50        1    95.93
  09323013C0       CIRCULAR             3.50     9.62     0.88     3.50        1    87.20
  09323014C0       CIRCULAR             3.50     9.62     0.88     3.50        1   116.65
  09323015C0       CIRCULAR             3.50     9.62     0.88     3.50        1   150.81
  09322001C0       CIRCULAR             3.50     9.62     0.88     3.50        1    58.60
  09322002C0       CIRCULAR             3.50     9.62     0.88     3.50        1    53.84
  09322003C0       CIRCULAR             3.50     9.62     0.88     3.50        1    55.15
  09322004C0       CIRCULAR             3.50     9.62     0.88     3.50        1    82.24
  09292007C0       CIRCULAR             5.50    23.76     1.38     5.50        1   204.14
  09292008C0       CIRCULAR             5.50    23.76     1.38     5.50        1   237.97
  09292009C0       CIRCULAR             4.50    15.90     1.12     4.50        1   231.38
  09292010C0       CIRCULAR             4.50    15.90     1.12     4.50        1   316.37
  09203001C0       CIRCULAR             4.50    15.90     1.12     4.50        1   243.80
  09203002C0       CIRCULAR             3.00     7.07     0.75     3.00        1   111.93
  09203003C0       CIRCULAR             3.00     7.07     0.75     3.00        1    74.63
  09203004C0       CIRCULAR             3.00     7.07     0.75     3.00        1    81.76
  09203005C0       CIRCULAR             3.00     7.07     0.75     3.00        1    89.28
  09203006C0       CIRCULAR             3.00     7.07     0.75     3.00        1   124.81
  09203007C0       CIRCULAR             3.00     7.07     0.75     3.00        1   105.72
  09203008C0       CIRCULAR             4.00    12.57     1.00     4.00        1   197.31
  09203009C0       CIRCULAR             4.00    12.57     1.00     4.00        1   160.65
  09203010C0       CIRCULAR             4.00    12.57     1.00     4.00        1   186.11
  09203011C0       CIRCULAR             4.00    12.57     1.00     4.00        1   161.37
  09203012C0       CIRCULAR             4.00    12.57     1.00     4.00        1   310.91
  09203013C0       CIRCULAR             4.00    12.57     1.00     4.00        1   272.29
  09301003C0       CIRCULAR             3.50     9.62     0.88     3.50        1    57.40
  09301004C0       CIRCULAR             3.00     7.07     0.75     3.00        1    81.98
  09301005C0       CIRCULAR             3.00     7.07     0.75     3.00        1    84.77
  09301006C0       CIRCULAR             3.00     7.07     0.75     3.00        1    70.66
  09301007C0       CIRCULAR             3.00     7.07     0.75     3.00        1    77.94
  09194001C0       CIRCULAR             3.50     9.62     0.88     3.50        1   117.71
  09194002C0       CIRCULAR             3.50     9.62     0.88     3.50        1    53.92
  09194003C0       CIRCULAR             3.50     9.62     0.88     3.50        1    78.14
  09194004C0       CIRCULAR             3.50     9.62     0.88     3.50        1    78.45
  09194005C0       CIRCULAR             3.50     9.62     0.88     3.50        1    56.91
  09194006C0       CIRCULAR             3.50     9.62     0.88     3.50        1    54.90
  09194007C0       CIRCULAR             3.50     9.62     0.88     3.50        1    47.48
  09194008C0       CIRCULAR             3.00     7.07     0.75     3.00        1    78.67
  09194009C0       CIRCULAR             3.00     7.07     0.75     3.00        1    78.57
  09194010C0       CIRCULAR             3.00     7.07     0.75     3.00        1    78.98
  09194011C0       CIRCULAR             3.00     7.07     0.75     3.00        1    78.34
  09194012C0       CIRCULAR             3.00     7.07     0.75     3.00        1    78.63
  09194013C0       CIRCULAR             3.00     7.07     0.75     3.00        1    53.57
  09194014C0       CIRCULAR             3.00     7.07     0.75     3.00        1    49.50
  09194015C0       CIRCULAR             3.00     7.07     0.75     3.00        1    85.39
  09194016C0       CIRCULAR             3.00     7.07     0.75     3.00        1    85.47
  09194017C0       CIRCULAR             3.00     7.07     0.75     3.00        1    85.33
  09292011C0       CIRCULAR             4.50    15.90     1.12     4.50        1   253.09
  09292012C0       CIRCULAR             4.00    12.57     1.00     4.00        1   178.18
  09301008C0       CIRCULAR             4.00    12.57     1.00     4.00        1   156.18
  09301009C0       CIRCULAR             4.00    12.57     1.00     4.00        1   133.73
  09301010C0       CIRCULAR             4.00    12.57     1.00     4.00        1   141.93
  09301010C1       CIRCULAR             4.00    12.57     1.00     4.00        1   141.98
  09301011C0       CIRCULAR             4.00    12.57     1.00     4.00        1   208.28
  09301012C0       CIRCULAR             3.50     9.62     0.88     3.50        1   167.07
  09301013C0       CIRCULAR             3.50     9.62     0.88     3.50        1   119.41
  09301014C0       CIRCULAR             3.50     9.62     0.88     3.50        1    91.91
  09302001C0       CIRCULAR             3.50     9.62     0.88     3.50        1    96.63
  09302002C0       CIRCULAR             3.50     9.62     0.88     3.50        1   136.38
  09302003C0       CIRCULAR             3.50     9.62     0.88     3.50        1   167.95
  09302004C0       CIRCULAR             6.00    28.27     1.50     6.00        1   958.23
  09302005C0       CIRCULAR             6.00    28.27     1.50     6.00        1   261.89
  09302006C0       CIRCULAR             6.00    28.27     1.50     6.00        1   302.86
  09302007C0       CIRCULAR             6.00    28.27     1.50     6.00        1   235.02
  09302008C0       CIRCULAR             6.00    28.27     1.50     6.00        1   201.04
  09302009C0       CIRCULAR             6.00    28.27     1.50     6.00        1   196.80
  09302010C0       CIRCULAR             6.00    28.27     1.50     6.00        1   201.04
  09302011C0       CIRCULAR             6.00    28.27     1.50     6.00        1   208.30
  09302012C0       CIRCULAR             6.00    28.27     1.50     6.00        1   164.15
  09302013C0       CIRCULAR             3.00     7.07     0.75     3.00        1   119.48
  09302014C0       CIRCULAR             3.00     7.07     0.75     3.00        1    80.48
  09193001C0       CIRCULAR             3.00     7.07     0.75     3.00        1   106.01
  09193002C0       CIRCULAR             3.00     7.07     0.75     3.00        1    53.14
  09193003C0       CIRCULAR             3.00     7.07     0.75     3.00        1    52.77
  09193004C0       CIRCULAR             3.00     7.07     0.75     3.00        1    21.56
  09193005C0       CIRCULAR             3.00     7.07     0.75     3.00        1    28.23
  09302015C0       CIRCULAR             5.50    23.76     1.38     5.50        1   111.46
  09302016C0       CIRCULAR             5.50    23.76     1.38     5.50        1    82.12
  09302017C0       CIRCULAR             5.50    23.76     1.38     5.50        1    82.55
  09251001C0       CIRCULAR             4.50    15.90     1.12     4.50        1   169.23
  09251002C0       CIRCULAR             3.50     9.62     0.88     3.50        1    97.03
  09292013C0       CIRCULAR             5.50    23.76     1.38     5.50        1   268.68
  09292014C0       CIRCULAR             5.50    23.76     1.38     5.50        1   151.18
  09292015C0       CIRCULAR             5.50    23.76     1.38     5.50        1   316.21
  09292016C0       CIRCULAR             5.00    19.63     1.25     5.00        1   379.88
  09292017C0       CIRCULAR             5.00    19.63     1.25     5.00        1   189.30
  09301015C0       CIRCULAR             5.00    19.63     1.25     5.00        1   225.72
  09304001C0       CIRCULAR             5.00    19.63     1.25     5.00        1   289.70
  09304002C0       CIRCULAR             5.00    19.63     1.25     5.00        1   290.21
  09304002C1       CIRCULAR             5.00    19.63     1.25     5.00        1   319.24
  09304003C0       CIRCULAR             4.50    15.90     1.12     4.50        1   273.31
  09304004C0       CIRCULAR             4.50    15.90     1.12     4.50        1   210.20
  09304005C0       CIRCULAR             4.50    15.90     1.12     4.50        1   240.37
  09304006C0       CIRCULAR             4.50    15.90     1.12     4.50        1   241.43
  09304007C0       CIRCULAR             4.50    15.90     1.12     4.50        1   241.05
  09304008C0       CIRCULAR             6.00    28.27     1.50     6.00        1   201.04
  09304009C0       CIRCULAR             6.00    28.27     1.50     6.00        1   270.76
  09304010C0       CIRCULAR             5.50    23.76     1.38     5.50        1   331.15
  09303001C0       CIRCULAR             5.50    23.76     1.38     5.50        1   432.56
  09303002C0       CIRCULAR             5.50    23.76     1.38     5.50        1   341.00
  09303003C0       CIRCULAR             5.00    19.63     1.25     5.00        1   293.49
  09303004C0       CIRCULAR             5.00    19.63     1.25     5.00        1   259.04
  09303005C0       CIRCULAR             5.00    19.63     1.25     5.00        1   260.44
  09303006C0       CIRCULAR             5.00    19.63     1.25     5.00        1   256.84
  09303007C0       CIRCULAR             5.00    19.63     1.25     5.00        1   278.46
  09303008C0       CIRCULAR             5.00    19.63     1.25     5.00        1   273.25
  09303009C0       CIRCULAR             3.50     9.62     0.88     3.50        1    99.02
  09303010C0       CIRCULAR             3.50     9.62     0.88     3.50        1    98.55
  09303011C0       CIRCULAR             3.50     9.62     0.88     3.50        1    78.60
  09303012C0       CIRCULAR             3.50     9.62     0.88     3.50        1    99.35
  09303013C0       CIRCULAR             3.00     7.07     0.75     3.00        1    78.57
  09303014C0       CIRCULAR             3.00     7.07     0.75     3.00        1   135.73
  09303015C0       CIRCULAR             3.00     7.07     0.75     3.00        1    85.90
  09303016C0       CIRCULAR             3.00     7.07     0.75     3.00        1    70.23
  09303017C0       CIRCULAR             3.00     7.07     0.75     3.00        1   123.14
  09294009C0       CIRCULAR             4.50    15.90     1.12     4.50        1   187.49
  09294010C0       CIRCULAR             4.00    12.57     1.00     4.00        1   114.59
  09294011C0       CIRCULAR             4.00    12.57     1.00     4.00        1    88.03
  09294012C0       CIRCULAR             4.00    12.57     1.00     4.00        1   225.23
  09293001C0       CIRCULAR             4.00    12.57     1.00     4.00        1   177.66
  09293002C0       CIRCULAR             4.50    15.90     1.12     4.50        1   113.83
  09293003C0       CIRCULAR             4.00    12.57     1.00     4.00        1    72.50
  09293004C0       CIRCULAR             4.00    12.57     1.00     4.00        1   145.50
  09293005C0       CIRCULAR             4.00    12.57     1.00     4.00        1   136.82
  09293006C0       CIRCULAR             4.00    12.57     1.00     4.00        1   271.71
  09293007C0       CIRCULAR             4.00    12.57     1.00     4.00        1   140.79
  09293008C0       CIRCULAR             4.00    12.57     1.00     4.00        1   268.78
  09293009C0       CIRCULAR             4.00    12.57     1.00     4.00        1   140.68
  09293010C0       CIRCULAR             4.00    12.57     1.00     4.00        1   139.87
  09293011C0       CIRCULAR             4.00    12.57     1.00     4.00        1   163.07
  09293012C0       CIRCULAR             3.00     7.07     0.75     3.00        1    94.18
  09293013C0       CIRCULAR             3.00     7.07     0.75     3.00        1    43.05
  09293014C0       CIRCULAR             3.00     7.07     0.75     3.00        1    83.61
  09293015C0       CIRCULAR             3.00     7.07     0.75     3.00        1    66.54
  09293016C0       CIRCULAR             3.00     7.07     0.75     3.00        1    50.22
  09293017C0       CIRCULAR             3.00     7.07     0.75     3.00        1    50.66
  09293018C0       CIRCULAR             3.00     7.07     0.75     3.00        1    77.91
  09293019C0       CIRCULAR             3.00     7.07     0.75     3.00        1    76.19
  09304011C0       CIRCULAR             3.00     7.07     0.75     3.00        1   102.21
  09304012C0       CIRCULAR             3.00     7.07     0.75     3.00        1    83.60
  09304013C0       CIRCULAR             3.00     7.07     0.75     3.00        1    58.95
  09311001C0       CIRCULAR             3.00     7.07     0.75     3.00        1    55.85
  09311002C0       CIRCULAR             3.00     7.07     0.75     3.00        1   111.62
  09311003C0       CIRCULAR             3.00     7.07     0.75     3.00        1    74.41
  09311004C0       CIRCULAR             3.00     7.07     0.75     3.00        1    71.13
  09324004C0       CIRCULAR             3.50     9.62     0.88     3.50        1   317.00
  09324000C2       TRAPEZOIDAL          4.00    24.00     1.80    10.00        1   449.37
  09301002C0       CIRCULAR             3.50     9.62     0.88     3.50        1   109.21
  09321010C0       CIRCULAR             4.00    12.57     1.00     4.00        1   239.54
  09321028C0       CIRCULAR             3.00     7.07     0.75     3.00        1    67.53
  09321027C0       CIRCULAR             3.00     7.07     0.75     3.00        1    80.28
  09321026C0       CIRCULAR             3.00     7.07     0.75     3.00        1    68.78
  09321025C0       CIRCULAR             3.00     7.07     0.75     3.00        1    64.96
  09321024C0       CIRCULAR             4.00    12.57     1.00     4.00        1    22.73
  09321023C0       CIRCULAR             4.00    12.57     1.00     4.00        1   149.40
  09321022C0       CIRCULAR             4.00    12.57     1.00     4.00        1   163.91
  09321021C0       CIRCULAR             4.00    12.57     1.00     4.00        1    81.95
  09321020C0       CIRCULAR             4.00    12.57     1.00     4.00        1    73.88
  09321019C0       CIRCULAR             4.00    12.57     1.00     4.00        1    76.14
  09321018C0       CIRCULAR             4.00    12.57     1.00     4.00        1    62.25
  09321017C0       CIRCULAR             4.00    12.57     1.00     4.00        1    86.85
  09321016C0       RECT_CLOSED          4.42    30.59     1.35     6.92        1   111.76
  09321015C0       RECT_CLOSED          4.42    30.59     1.35     6.92        1   342.77
  09321014C0       RECT_CLOSED          4.42    30.59     1.35     6.92        1   354.53
  09321013C0       RECT_CLOSED          4.42    30.59     1.35     6.92        1   126.33
  09321012C0       RECT_CLOSED          4.42    30.59     1.35     6.92        1   127.15
  09321011C0       RECT_CLOSED          4.42    30.59     1.35     6.92        1   192.93
  09321009C0       CIRCULAR             4.00    12.57     1.00     4.00        1   207.73
  09321032C0       CIRCULAR             3.00     7.07     0.75     3.00        1    53.29
  09321031C0       CIRCULAR             3.00     7.07     0.75     3.00        1    83.11
  09321030C0       CIRCULAR             3.00     7.07     0.75     3.00        1    55.85
  09321029C0       CIRCULAR             3.00     7.07     0.75     3.00        1   158.74
  09321035C0       CIRCULAR             4.00    12.57     1.00     4.00        1   106.00
  09321037C0       CIRCULAR             3.50     9.62     0.88     3.50        1    96.02
  09321036C0       CIRCULAR             5.00    19.63     1.25     5.00        1   142.76
  09321034C0       CIRCULAR             4.00    12.57     1.00     4.00        1    50.39
  09294014C0       CIRCULAR             3.25     8.30     0.81     3.25        1    49.38
  09294013C0       CIRCULAR             3.00     7.07     0.75     3.00        1    99.81
  09312019C0       CIRCULAR             3.50     9.62     0.88     3.50        1   115.64
  09312018C0       CIRCULAR             3.50     9.62     0.88     3.50        1   107.73
  09312017C0       CIRCULAR             3.50     9.62     0.88     3.50        1    93.99
  09312016C0       CIRCULAR             3.50     9.62     0.88     3.50        1    86.00
  09312015C0       CIRCULAR             4.00    12.57     1.00     4.00        1   134.95
  09312014C0       CIRCULAR             4.00    12.57     1.00     4.00        1   131.38
  09312013C0       CIRCULAR             4.00    12.57     1.00     4.00        1   156.93
  09312012C0       CIRCULAR             4.00    12.57     1.00     4.00        1   157.48
  09312011C0       CIRCULAR             4.50    15.90     1.12     4.50        1   215.59
  09312010C0       CIRCULAR             4.50    15.90     1.12     4.50        1   137.41
  09312009C0       CIRCULAR             4.50    15.90     1.12     4.50        1   122.90
  09312008C0       CIRCULAR             4.50    15.90     1.12     4.50        1   279.45
  09312007C0       CIRCULAR             4.50    15.90     1.12     4.50        1   184.09
  09312006C0       CIRCULAR             4.50    15.90     1.12     4.50        1   178.75
  09312005C0       CIRCULAR             4.50    15.90     1.12     4.50        1   184.09
  09312004C0       CIRCULAR             4.50    15.90     1.12     4.50        1   231.83
  09312003C0       CIRCULAR             4.50    15.90     1.12     4.50        1   222.75
  09312002C0       CIRCULAR             4.50    15.90     1.12     4.50        1   169.01
  09312001C0       CIRCULAR             4.50    15.90     1.12     4.50        1   104.13
  09303020C0       CIRCULAR             4.50    15.90     1.12     4.50        1   209.74
  09303019C0       CIRCULAR             5.00    19.63     1.25     5.00        1   257.37
  09303018C0       CIRCULAR             5.00    19.63     1.25     5.00        1   238.75
  09312020C0       CIRCULAR             3.50     9.62     0.88     3.50        1    97.41
  09312025C0       CIRCULAR             3.00     7.07     0.75     3.00        1    45.70
  09312024C0       CIRCULAR             3.00     7.07     0.75     3.00        1    22.39
  09312023C0       CIRCULAR             3.00     7.07     0.75     3.00        1   107.99
  09312022C0       CIRCULAR             3.00     7.07     0.75     3.00        1    54.02
  09312021C0       CIRCULAR             3.00     7.07     0.75     3.00        1   107.40
  
  
  ****************
  Transect Summary
  ****************

  Transect NS_09204000C2
  Area:  
              0.0059     0.0124     0.0196     0.0275     0.0361 
              0.0453     0.0551     0.0656     0.0767     0.0884 
              0.1006     0.1134     0.1267     0.1406     0.1551 
              0.1700     0.1856     0.2017     0.2183     0.2355 
              0.2532     0.2715     0.2904     0.3098     0.3297 
              0.3502     0.3713     0.3929     0.4151     0.4378 
              0.4611     0.4850     0.5094     0.5344     0.5599 
              0.5860     0.6126     0.6397     0.6674     0.6956 
              0.7243     0.7535     0.7830     0.8129     0.8432 
              0.8739     0.9049     0.9362     0.9679     1.0000 
  Hrad:  
              0.0317     0.0604     0.0868     0.1115     0.1352 
[...]
  09204004C0                  0.73      1.02      0.75      1.62         0.71
  09204005C0                  0.99      1.06      1.02      0.89         0.39
  09204006C0                  1.03      1.15      1.06      0.93         0.42
  09292001C0                  1.14      1.29      1.15      0.92         0.49
  09292001C1                  1.28      1.37      1.29      0.85         0.61
  09292001C2                  1.37      1.38      1.37      0.89         0.73
  09292001C3                  1.35      1.36      1.35      1.63         1.35
  09292002C0                  1.36      1.38      1.36      1.63         1.35
  09292002C1                  1.38      1.48      1.38      1.66         1.38
  09292003C0                  1.48      1.51      1.48      2.02         1.48
  09292004C0                  1.51      1.54      1.51      1.65         1.50
  09292004C1                  1.42      1.43      1.44      0.01         0.01
  09292004C2                  1.18      1.18      1.38      0.01         0.01
  09292005C0                  0.01      0.01      1.34      0.01         0.01
  09292005C2                  0.01      0.73      0.01      1.40         0.01
  09292006C0                  0.18      0.80      0.18      1.60         0.18
  09292006C1                  0.80      0.81      0.80      0.47         0.27
  09292006C2                  0.81      0.82      0.81      1.41         0.61
  09294001C0                  0.82      0.82      0.82      0.65         0.35
  09294001C1                  0.82      0.83      0.82      0.66         0.36
  09294002C0                  1.13      1.35      1.13      1.38         0.92
  09294003C0                  1.35      1.50      1.35      1.60         1.35
  09294004C0                  1.45      1.45      1.50      0.01         0.01
  09294005C0                  1.39      1.39      1.45      0.01         0.01
  09294006C0                  1.33      1.33      1.39      0.39         0.32
  09294007C0                  1.31      1.31      1.33      0.35         0.31
  09294008C0                  1.21      1.21      1.31      0.63         0.63
  09321000C1                  1.20      1.29      1.21      1.45         1.18
  09321001C0                  0.21      0.21      0.22      0.01         0.01
  09321002C0                  0.01      0.01      0.01      0.01         0.01
  09321003C0                  0.23      0.25      0.23      0.86         0.23
  09321004C0                  0.24      0.72      0.25      0.86         0.24
  09321005C0                  0.72      0.76      0.72      0.88         0.72
  09321006C0                  0.74      0.74      0.76      0.79         0.74
  09321007C0                  0.74      0.74      0.74      0.50         0.47
  09321008C0                  0.41      0.41      0.74      0.01         0.01
  09324000C1                  0.01      0.01      0.41      0.01         0.01
  09324000C4                  0.01      0.01      0.01      0.76         0.01
  09324000C5                  0.01      0.01      0.01      0.68         0.01
  09324000C7                  0.01      0.83      0.01      0.83         0.01
  09324000C8                  1.29      1.50      1.55      0.51         0.71
  09324000C9                  0.64      0.64      0.67      0.45         0.45
  09324000CA                  0.23      0.23      0.24      0.16         0.16
  09324000CB                  0.15      0.15      0.23      0.15         0.11
  09324001C0                  0.13      0.14      0.15      0.16         0.11
  09324001C1                  0.12      0.12      0.14      0.17         0.10
  09324002C0                  0.10      0.10      0.12      0.18         0.10
  09324003C0                  0.01      0.01      0.10      0.01         0.01
  09323002C0                  0.01      0.21      0.01      0.44         0.01
  09323003C0                  0.09      0.09      0.21      0.01         0.01
  09323004C0                  0.05      0.05      0.09      0.01         0.01
  09323005C0                  0.01      0.01      0.05      0.01         0.01
  09323008C0                  0.01      0.32      0.01      0.36         0.01
  09314001C0                  0.29      0.29      0.32      0.28         0.26
  09314002C0                  0.29      0.35      0.29      0.87         0.29
  09323009C0                  0.01      0.32      0.01      0.84         0.01
  09323010C0                  0.32      0.70      0.32      0.87         0.32
  09323011C0                  0.52      0.52      0.70      0.47         0.46
  09323012C0                  0.44      0.44      0.52      0.01         0.01
  09323013C0                  0.40      0.40      0.44      0.01         0.01
  09323014C0                  0.37      0.37      0.40      0.01         0.01
  09323015C0                  0.29      0.29      0.37      0.01         0.01
  09322001C0                  0.29      0.37      0.29      0.52         0.29
  09322002C0                  0.37      0.43      0.37      0.58         0.37
  09322003C0                  0.43      0.45      0.43      0.56         0.43
  09322004C0                  0.39      0.39      0.45      0.05         0.05
  09292007C0                  1.58      1.58      1.67      1.02         1.02
  09292008C0                  1.25      1.25      1.58      0.95         0.96
  09292009C0                  0.71      0.71      1.39      0.01         0.01
  09292010C0                  0.38      0.38      0.71      0.01         0.01
  09203001C0                  0.32      0.32      0.38      0.01         0.01
  09203002C0                  0.37      0.37      0.41      0.38         0.37
  09203003C0                  0.32      0.32      0.37      0.20         0.21
  09203004C0                  0.24      0.24      0.32      0.01         0.01
  09203005C0                  0.22      0.22      0.24      0.01         0.01
  09203006C0                  0.20      0.20      0.22      0.01         0.01
  09203007C0                  0.14      0.14      0.20      0.05         0.05
  09203008C0                  0.06      0.06      0.11      0.01         0.01
  09203009C0                  0.01      0.01      0.06      0.01         0.01
  09301003C0                  0.35      0.35      0.36      0.30         0.31
  09301004C0                  0.29      0.29      0.37      0.01         0.01
  09301005C0                  0.27      0.27      0.29      0.01         0.01
  09301006C0                  0.25      0.25      0.27      0.22         0.22
  09301007C0                  0.23      0.23      0.25      0.17         0.17
  09194001C0                  0.21      0.21      0.22      0.01         0.01
  09194002C0                  0.01      0.01      0.01      0.29         0.01
  09194003C0                  0.01      0.01      0.01      0.18         0.01
  09194004C0                  0.01      0.01      0.01      0.17         0.01
  09194005C0                  0.01      0.15      0.01      0.29         0.01
  09194006C0                  0.15      0.22      0.15      0.29         0.15
  09194007C0                  0.22      0.26      0.22      0.33         0.22
  09194008C0                  0.24      0.24      0.25      0.17         0.17
  09194009C0                  0.23      0.23      0.24      0.17         0.17
  09194010C0                  0.22      0.22      0.23      0.17         0.16
  09194011C0                  0.21      0.21      0.22      0.17         0.17
  09194012C0                  0.21      0.21      0.21      0.17         0.17
  09194013C0                  0.21      0.25      0.21      0.29         0.21
  09194014C0                  0.25      0.25      0.25      0.31         0.25
  09194015C0                  0.20      0.20      0.25      0.01         0.01
  09194016C0                  0.19      0.19      0.20      0.17         0.17
  09194017C0                  0.18      0.18      0.19      0.17         0.17
  09292011C0                  0.83      0.83      1.39      0.01         0.01
  09292012C0                  0.01      0.01      0.85      0.01         0.01
  09301008C0                  0.01      0.01      0.01      0.72         0.01
  09301009C0                  0.01      0.77      0.01      0.83         0.01
  09301010C0                  0.77      0.78      0.77      0.81         0.77
  09301010C1                  0.77      0.78      0.78      0.81         0.77
  09301011C0                  0.66      0.66      0.78      0.01         0.01
  09301012C0                  0.60      0.61      0.69      0.48         0.45
  09301013C0                  0.60      0.74      0.61      0.44         0.28
  09301014C0                  0.74      0.75      0.74      0.83         0.74
  09302001C0                  0.75      0.78      0.75      0.81         0.75
  09302002C0                  0.76      0.76      0.78      0.01         0.01
  09302003C0                  0.74      0.74      0.76      0.01         0.01
  09302004C0                  0.58      0.58      0.72      0.01         0.01
  09302005C0                  0.49      0.49      0.58      0.01         0.01
  09302006C0                  0.22      0.22      0.49      0.01         0.01
  09302007C0                  0.22      0.23      0.22      0.28         0.22
  09302008C0                  0.23      0.23      0.23      0.34         0.23
  09302009C0                  0.23      0.24      0.23      0.34         0.23
  09302010C0                  0.24      0.24      0.24      0.34         0.24
  09302011C0                  0.24      0.27      0.24      0.33         0.24
  09302012C0                  0.27      0.28      0.27      0.42         0.27
  09302013C0                  0.27      0.27      0.40      0.01         0.01
  09302014C0                  0.01      0.01      0.27      0.01         0.01
  09193002C0                  0.01      0.01      0.01      0.01         0.01
  09193003C0                  0.01      0.01      0.01      0.01         0.01
  09193004C0                  0.01      0.15      0.01      0.32         0.01
  09193005C0                  0.15      0.19      0.15      0.26         0.15
  09302015C0                  0.31      0.31      0.31      0.42         0.31
  09302016C0                  0.31      0.33      0.31      0.61         0.31
  09302017C0                  0.33      0.36      0.33      0.60         0.33
  09251001C0                  0.09      0.09      0.49      0.01         0.01
  09251002C0                  0.01      0.01      0.19      0.01         0.01
  09292013C0                  1.14      1.14      1.59      0.27         0.27
  09292014C0                  1.14      1.19      1.14      1.37         1.13
  09292015C0                  1.05      1.05      1.19      0.01         0.01
  09292016C0                  0.63      0.63      1.06      0.01         0.01
  09292017C0                  0.63      1.04      0.63      1.15         0.63
  09301015C0                  0.98      0.98      1.04      0.53         0.53
  09304001C0                  0.90      0.90      0.98      0.01         0.01
  09304002C0                  0.85      0.85      0.90      0.01         0.01
  09304002C1                  0.01      0.01      0.85      0.01         0.01
  09304004C0                  0.01      1.03      0.01      1.05         0.01
  09304005C0                  1.02      1.02      1.03      0.01         0.01
  09304006C0                  1.01      1.01      1.02      0.01         0.01
  09304007C0                  0.99      0.99      1.01      0.01         0.01
  09304008C0                  0.95      0.96      0.96      0.83         0.75
  09304009C0                  0.94      0.94      0.96      0.01         0.01
  09304010C0                  0.83      0.83      0.95      0.01         0.01
  09303001C0                  0.41      0.41      0.83      0.14         0.14
  09303002C0                  0.39      0.39      0.41      0.01         0.01
  09303003C0                  0.37      0.37      0.40      0.01         0.01
  09303004C0                  0.37      0.38      0.37      0.30         0.27
  09303005C0                  0.38      0.38      0.38      0.28         0.25
  09303006C0                  0.38      0.38      0.38      0.33         0.30
  09303007C0                  0.37      0.37      0.38      0.10         0.09
  09303008C0                  0.37      0.37      0.37      0.15         0.14
  09303009C0                  0.39      0.39      0.41      0.27         0.27
  09303010C0                  0.38      0.38      0.39      0.28         0.27
  09303011C0                  0.38      0.38      0.38      0.32         0.31
  09303012C0                  0.32      0.33      0.35      0.28         0.27
  09303013C0                  0.34      0.34      0.35      0.33         0.31
  09303014C0                  0.30      0.30      0.34      0.01         0.01
  09303015C0                  0.30      0.31      0.30      0.31         0.30
  09303016C0                  0.30      0.34      0.30      0.36         0.30
  09303017C0                  0.32      0.32      0.34      0.01         0.01
  09294009C0                  0.78      0.78      2.01      0.01         0.01
  09294010C0                  0.73      0.73      0.83      0.46         0.46
  09294011C0                  0.71      0.71      0.73      0.63         0.63
  09294012C0                  0.41      0.41      0.71      0.01         0.01
  09293001C0                  0.26      0.26      0.41      0.01         0.01
  09293002C0                  0.01      0.27      0.01      0.46         0.01
  09293003C0                  0.37      0.58      0.37      0.79         0.37
  09293004C0                  0.51      0.51      0.58      0.28         0.27
  09293005C0                  0.43      0.43      0.51      0.34         0.35
  09293006C0                  0.32      0.32      0.43      0.01         0.01
  09293007C0                  0.29      0.30      0.32      0.31         0.28
  09293008C0                  0.24      0.24      0.30      0.01         0.01
  09293009C0                  0.24      0.24      0.24      0.31         0.24
  09293010C0                  0.18      0.18      0.24      0.01         0.01
  09293011C0                  0.10      0.10      0.18      0.01         0.01
  09293012C0                  0.01      0.01      0.16      0.01         0.01
  09293013C0                  0.01      0.63      0.01      0.83         0.01
  09293014C0                  0.52      0.52      0.63      0.39         0.39
  09293015C0                  0.48      0.48      0.52      0.01         0.01
  09293016C0                  0.46      0.46      0.48      0.06         0.06
  09293017C0                  0.45      0.45      0.46      0.06         0.06
  09293018C0                  0.41      0.41      0.45      0.25         0.25
  09293019C0                  0.34      0.34      0.41      0.26         0.26
  09304011C0                  0.32      0.32      0.34      0.01         0.01
  09304012C0                  0.30      0.30      0.32      0.01         0.04
  09304013C0                  0.30      0.31      0.30      0.35         0.30
  09311001C0                  0.31      0.33      0.31      0.36         0.30
  09311002C0                  0.28      0.28      0.33      0.01         0.01
  09311003C0                  0.26      0.26      0.28      0.01         0.01
  09311004C0                  0.25      0.25      0.26      0.01         0.01
  09324004C0                  0.01      0.01      0.11      0.01         0.01
  09301002C0                  0.36      0.36      0.37      0.36         0.35
  09321028C0                  0.39      0.40      0.39      0.42         0.39
  09321027C0                  0.39      0.39      0.43      0.01         0.01
  09321026C0                  0.42      0.43      0.43      0.44         0.42
  09321025C0                  0.01      0.43      0.01      0.46         0.01
  09321024C0                  0.01      0.01      0.01      1.22         0.01
  09321022C0                  0.01      0.01      0.01      0.01         0.01
  09321021C0                  0.01      0.01      0.45      0.01         0.01
  09321020C0                  0.45      0.45      0.47      0.01         0.01
  09321019C0                  0.47      0.47      0.51      0.01         0.01
  09321018C0                  0.50      0.51      0.50      0.22         0.10
  09321017C0                  0.01      0.50      0.01      0.71         0.01
  09321016C0                  0.01      0.01      0.01      0.55         0.01
  09321014C0                  0.01      0.01      0.61      0.01         0.01
  09321013C0                  0.61      0.61      0.85      0.36         0.35
  09321012C0                  0.85      0.85      0.92      0.35         0.34
  09321011C0                  0.92      0.92      1.16      0.01         0.01
  09321009C0                  0.01      0.01      0.84      0.01         0.01
  09321032C0                  0.81      0.81      1.10      0.24         0.24
  09321031C0                  1.10      1.10      1.23      0.01         0.01
  09321030C0                  1.23      1.23      1.43      0.16         0.16
  09321029C0                  1.43      1.43      2.26      0.01         0.01
  09321035C0                  0.23      0.23      1.44      0.01         0.01
  09321037C0                  0.02      0.02      1.21      0.01         0.01
  09321036C0                  0.99      0.99      1.44      0.01         0.01
  09321034C0                  1.44      1.44      1.61      1.01         0.01
  09294014C0                  1.56      1.56      1.88      0.81         0.01
  09294013C0                  1.32      1.32      2.13      0.01         0.01
  09312019C0                  0.25      0.25      0.27      0.01         0.01
  09312018C0                  0.27      0.27      0.29      0.01         0.01
  09312017C0                  0.29      0.29      0.29      0.30         0.28
  09312016C0                  0.01      0.29      0.01      0.30         0.01
  09312015C0                  0.01      0.01      0.14      0.01         0.01
  09312014C0                  0.14      0.14      0.21      0.01         0.01
  09312013C0                  0.21      0.21      0.25      0.01         0.01
  09312012C0                  0.25      0.25      0.26      0.01         0.01
  09312011C0                  0.24      0.24      0.25      0.01         0.01
  09312010C0                  0.25      0.25      0.26      0.01         0.01
  09312009C0                  0.26      0.26      0.27      0.01         0.01
  09312008C0                  0.27      0.27      0.30      0.01         0.01
  09312007C0                  0.30      0.30      0.31      0.01         0.01
  09312006C0                  0.31      0.31      0.32      0.01         0.01
  09312005C0                  0.32      0.32      0.33      0.01         0.01
  09312004C0                  0.33      0.33      0.33      0.01         0.01
  09312003C0                  0.33      0.33      0.39      0.01         0.01
  09312002C0                  0.39      0.39      0.40      0.38         0.38
  09312001C0                  0.33      0.40      0.33      0.52         0.33
  09303020C0                  0.33      0.33      0.34      0.32         0.31
  09303019C0                  0.32      0.32      0.34      0.01         0.01
  09303018C0                  0.34      0.34      0.37      0.18         0.18
  09312020C0                  0.25      0.26      0.25      0.28         0.25
  09312025C0                  0.30      0.30      0.30      0.25         0.21
  09312024C0                  0.30      0.30      0.30      0.32         0.26
  09312023C0                  0.30      0.30      0.38      0.01         0.01
  09312022C0                  0.38      0.38      0.40      0.19         0.03
  09312021C0                  0.40      0.40      0.49      0.01         0.01
  

  Analysis begun on:  Wed Jun 24 12:02:36 2026
  Analysis ended on:  Wed Jun 24 12:02:56 2026
  Total elapsed time: 00:00:20