
  EPA STORM WATER MANAGEMENT MODEL - VERSION 5.2 (Build 5.2.4)
  ------------------------------------------------------------

  
  ERROR 191: simulation start date comes after ending date.

  Analysis begun on:  Wed Jun 24 12:03:08 2026
  Analysis ended on:  Wed Jun 24 12:03:09 2026
  Total elapsed time: 00:00:01