
  EPA STORM WATER MANAGEMENT MODEL - VERSION 5.2 (Build 5.2.4)
  ------------------------------------------------------------

  
  ERROR 209: undefined object MONTHLY_POP_2 at line 21836 of [DWF] section:
  1022             FLOW             5          "MONTHLY_POP_2" "HOURLY_POP_2" "WEEKEND_POP_2"

  
  ERROR 209: undefined object MONTHLY_POP_1 at line 21837 of [DWF] section:
  114              FLOW             13         "MONTHLY_POP_1" "HOURLY_POP_1" "WEEKEND_POP_1"

  
  ERROR 209: undefined object MONTHLY_POP_2 at line 21838 of [DWF] section:
  1166             FLOW             8          "MONTHLY_POP_2" "HOURLY_POP_2" "WEEKEND_POP_2"

  
  ERROR 209: undefined object MONTHLY_POP_1 at line 21839 of [DWF] section:
  11888            FLOW             10         "MONTHLY_POP_1" "HOURLY_POP_1" "WEEKEND_POP_1"

  
  ERROR 209: undefined object MONTHLY_POP_1 at line 21840 of [DWF] section:
  11889            FLOW             14         "MONTHLY_POP_1" "HOURLY_POP_1" "WEEKEND_POP_1"

  
  ERROR 209: undefined object MONTHLY_POP_1 at line 21841 of [DWF] section:
  11890            FLOW             15         "MONTHLY_POP_1" "HOURLY_POP_1" "WEEKEND_POP_1"

  
  ERROR 209: undefined object MONTHLY_POP_1 at line 21842 of [DWF] section:
  11891            FLOW             15         "MONTHLY_POP_1" "HOURLY_POP_1" "WEEKEND_POP_1"

  
  ERROR 209: undefined object MONTHLY_POP_1 at line 21843 of [DWF] section:
  11892            FLOW             12         "MONTHLY_POP_1" "HOURLY_POP_1" "WEEKEND_POP_1"

  
  ERROR 209: undefined object MONTHLY_POP_1 at line 21844 of [DWF] section:
  11893            FLOW             18         "MONTHLY_POP_1" "HOURLY_POP_1" "WEEKEND_POP_1"

  
  ERROR 209: undefined object MONTHLY_POP_1 at line 21845 of [DWF] section:
  11894            FLOW             17         "MONTHLY_POP_1" "HOURLY_POP_1" "WEEKEND_POP_1"

  
  ERROR 209: undefined object MONTHLY_POP_1 at line 21846 of [DWF] section:
  11895            FLOW             16         "MONTHLY_POP_1" "HOURLY_POP_1" "WEEKEND_POP_1"

  
  ERROR 209: undefined object MONTHLY_POP_1 at line 21847 of [DWF] section:
  11896            FLOW             9          "MONTHLY_POP_1" "HOURLY_POP_1" "WEEKEND_POP_1"

  
  ERROR 209: undefined object MONTHLY_POP_1 at line 21848 of [DWF] section:
  11897            FLOW             20         "MONTHLY_POP_1" "HOURLY_POP_1" "WEEKEND_POP_1"

  
  ERROR 209: undefined object MONTHLY_POP_1 at line 21849 of [DWF] section:
  11898            FLOW             9          "MONTHLY_POP_1" "HOURLY_POP_1" "WEEKEND_POP_1"

  
  ERROR 209: undefined object MONTHLY_POP_1 at line 21850 of [DWF] section:
  11899            FLOW             16         "MONTHLY_POP_1" "HOURLY_POP_1" "WEEKEND_POP_1"

  
  ERROR 209: undefined object MONTHLY_POP_1 at line 21851 of [DWF] section:
  11900            FLOW             8          "MONTHLY_POP_1" "HOURLY_POP_1" "WEEKEND_POP_1"

  
  ERROR 209: undefined object MONTHLY_POP_1 at line 21852 of [DWF] section:
  11901            FLOW             8          "MONTHLY_POP_1" "HOURLY_POP_1" "WEEKEND_POP_1"

  
  ERROR 209: undefined object MONTHLY_POP_1 at line 21853 of [DWF] section:
  11902            FLOW             15         "MONTHLY_POP_1" "HOURLY_POP_1" "WEEKEND_POP_1"

  
  ERROR 209: undefined object MONTHLY_POP_1 at line 21854 of [DWF] section:
  11903            FLOW             7          "MONTHLY_POP_1" "HOURLY_POP_1" "WEEKEND_POP_1"

  
  ERROR 209: undefined object MONTHLY_POP_1 at line 21855 of [DWF] section:
  11904            FLOW             8          "MONTHLY_POP_1" "HOURLY_POP_1" "WEEKEND_POP_1"

  
  ERROR 209: undefined object MONTHLY_POP_1 at line 21856 of [DWF] section:
  11905            FLOW             7          "MONTHLY_POP_1" "HOURLY_POP_1" "WEEKEND_POP_1"

  
  ERROR 209: undefined object MONTHLY_POP_1 at line 21857 of [DWF] section:
  11906            FLOW             14         "MONTHLY_POP_1" "HOURLY_POP_1" "WEEKEND_POP_1"

  
  ERROR 209: undefined object MONTHLY_POP_1 at line 21858 of [DWF] section:
  11907            FLOW             12         "MONTHLY_POP_1" "HOURLY_POP_1" "WEEKEND_POP_1"

  
  ERROR 209: undefined object MONTHLY_POP_1 at line 21859 of [DWF] section:
  11908            FLOW             17         "MONTHLY_POP_1" "HOURLY_POP_1" "WEEKEND_POP_1"

  
  ERROR 209: undefined object MONTHLY_POP_1 at line 21860 of [DWF] section:
  11909            FLOW             19         "MONTHLY_POP_1" "HOURLY_POP_1" "WEEKEND_POP_1"

  
  ERROR 209: undefined object MONTHLY_POP_1 at line 21861 of [DWF] section:
  11910            FLOW             14         "MONTHLY_POP_1" "HOURLY_POP_1" "WEEKEND_POP_1"

  
  ERROR 209: undefined object MONTHLY_POP_1 at line 21862 of [DWF] section:
  11911            FLOW             12         "MONTHLY_POP_1" "HOURLY_POP_1" "WEEKEND_POP_1"

  
  ERROR 209: undefined object MONTHLY_POP_1 at line 21863 of [DWF] section:
  11912            FLOW             24         "MONTHLY_POP_1" "HOURLY_POP_1" "WEEKEND_POP_1"

  
  ERROR 209: undefined object MONTHLY_POP_1 at line 21864 of [DWF] section:
  11913            FLOW             24         "MONTHLY_POP_1" "HOURLY_POP_1" "WEEKEND_POP_1"

  
  ERROR 209: undefined object MONTHLY_POP_1 at line 21865 of [DWF] section:
  11914            FLOW             19         "MONTHLY_POP_1" "HOURLY_POP_1" "WEEKEND_POP_1"

  
  ERROR 209: undefined object MONTHLY_POP_1 at line 21866 of [DWF] section:
  11915            FLOW             12         "MONTHLY_POP_1" "HOURLY_POP_1" "WEEKEND_POP_1"

  
  ERROR 209: undefined object MONTHLY_POP_1 at line 21867 of [DWF] section:
  11916            FLOW             24         "MONTHLY_POP_1" "HOURLY_POP_1" "WEEKEND_POP_1"

  
  ERROR 209: undefined object MONTHLY_POP_1 at line 21868 of [DWF] section:
  11917            FLOW             20         "MONTHLY_POP_1" "HOURLY_POP_1" "WEEKEND_POP_1"

  
  ERROR 209: undefined object MONTHLY_POP_1 at line 21869 of [DWF] section:
  11918            FLOW             28         "MONTHLY_POP_1" "HOURLY_POP_1" "WEEKEND_POP_1"

  
  ERROR 209: undefined object MONTHLY_POP_1 at line 21870 of [DWF] section:
  11919            FLOW             15         "MONTHLY_POP_1" "HOURLY_POP_1" "WEEKEND_POP_1"

  
  ERROR 209: undefined object MONTHLY_POP_1 at line 21871 of [DWF] section:
  11920            FLOW             9          "MONTHLY_POP_1" "HOURLY_POP_1" "WEEKEND_POP_1"

  
  ERROR 209: undefined object MONTHLY_POP_1 at line 21872 of [DWF] section:
  11921            FLOW             13         "MONTHLY_POP_1" "HOURLY_POP_1" "WEEKEND_POP_1"

  
  ERROR 209: undefined object MONTHLY_POP_1 at line 21873 of [DWF] section:
  11922            FLOW             6          "MONTHLY_POP_1" "HOURLY_POP_1" "WEEKEND_POP_1"

  
  ERROR 209: undefined object MONTHLY_POP_1 at line 21874 of [DWF] section:
  11923            FLOW             10         "MONTHLY_POP_1" "HOURLY_POP_1" "WEEKEND_POP_1"

  
  ERROR 209: undefined object MONTHLY_POP_1 at line 21875 of [DWF] section:
  11924            FLOW             23         "MONTHLY_POP_1" "HOURLY_POP_1" "WEEKEND_POP_1"

  
  ERROR 209: undefined object MONTHLY_POP_1 at line 21876 of [DWF] section:
  11925            FLOW             18         "MONTHLY_POP_1" "HOURLY_POP_1" "WEEKEND_POP_1"

  
  ERROR 209: undefined object MONTHLY_POP_1 at line 21877 of [DWF] section:
  11926            FLOW             25         "MONTHLY_POP_1" "HOURLY_POP_1" "WEEKEND_POP_1"

  
  ERROR 209: undefined object MONTHLY_POP_1 at line 21878 of [DWF] section:
  11927            FLOW             14         "MONTHLY_POP_1" "HOURLY_POP_1" "WEEKEND_POP_1"

  
  ERROR 209: undefined object MONTHLY_POP_1 at line 21879 of [DWF] section:
  11928            FLOW             12         "MONTHLY_POP_1" "HOURLY_POP_1" "WEEKEND_POP_1"

  
  ERROR 209: undefined object MONTHLY_POP_1 at line 21880 of [DWF] section:
  11929            FLOW             17         "MONTHLY_POP_1" "HOURLY_POP_1" "WEEKEND_POP_1"

  
  ERROR 209: undefined object MONTHLY_POP_1 at line 21881 of [DWF] section:
  11930            FLOW             15         "MONTHLY_POP_1" "HOURLY_POP_1" "WEEKEND_POP_1"

  
  ERROR 209: undefined object MONTHLY_POP_1 at line 21882 of [DWF] section:
  11932            FLOW             25         "MONTHLY_POP_1" "HOURLY_POP_1" "WEEKEND_POP_1"

  
  ERROR 209: undefined object MONTHLY_POP_1 at line 21883 of [DWF] section:
  11933            FLOW             13         "MONTHLY_POP_1" "HOURLY_POP_1" "WEEKEND_POP_1"

  
  ERROR 209: undefined object MONTHLY_POP_1 at line 21884 of [DWF] section:
  11934            FLOW             10         "MONTHLY_POP_1" "HOURLY_POP_1" "WEEKEND_POP_1"

  
  ERROR 209: undefined object MONTHLY_POP_1 at line 21885 of [DWF] section:
  11935            FLOW             4          "MONTHLY_POP_1" "HOURLY_POP_1" "WEEKEND_POP_1"

  
  ERROR 209: undefined object MONTHLY_POP_1 at line 21886 of [DWF] section:
  11936            FLOW             13         "MONTHLY_POP_1" "HOURLY_POP_1" "WEEKEND_POP_1"

  
  ERROR 209: undefined object MONTHLY_POP_1 at line 21887 of [DWF] section:
  11937            FLOW             17         "MONTHLY_POP_1" "HOURLY_POP_1" "WEEKEND_POP_1"

  
  ERROR 209: undefined object MONTHLY_POP_1 at line 21888 of [DWF] section:
  11938            FLOW             4          "MONTHLY_POP_1" "HOURLY_POP_1" "WEEKEND_POP_1"

  
  ERROR 209: undefined object MONTHLY_POP_1 at line 21889 of [DWF] section:
  11939            FLOW             7          "MONTHLY_POP_1" "HOURLY_POP_1" "WEEKEND_POP_1"

  
  ERROR 209: undefined object MONTHLY_POP_1 at line 21890 of [DWF] section:
  11940            FLOW             19         "MONTHLY_POP_1" "HOURLY_POP_1" "WEEKEND_POP_1"

  
  ERROR 209: undefined object MONTHLY_POP_1 at line 21891 of [DWF] section:
  11941            FLOW             23         "MONTHLY_POP_1" "HOURLY_POP_1" "WEEKEND_POP_1"

  
  ERROR 209: undefined object MONTHLY_POP_1 at line 21892 of [DWF] section:
  11942            FLOW             10         "MONTHLY_POP_1" "HOURLY_POP_1" "WEEKEND_POP_1"

  
  ERROR 209: undefined object MONTHLY_POP_1 at line 21893 of [DWF] section:
  11943            FLOW             12         "MONTHLY_POP_1" "HOURLY_POP_1" "WEEKEND_POP_1"

  
  ERROR 209: undefined object MONTHLY_POP_1 at line 21894 of [DWF] section:
  11944            FLOW             11         "MONTHLY_POP_1" "HOURLY_POP_1" "WEEKEND_POP_1"

  
  ERROR 209: undefined object MONTHLY_POP_1 at line 21895 of [DWF] section:
  11945            FLOW             19         "MONTHLY_POP_1" "HOURLY_POP_1" "WEEKEND_POP_1"

  
  ERROR 209: undefined object MONTHLY_POP_1 at line 21896 of [DWF] section:
  11946            FLOW             23         "MONTHLY_POP_1" "HOURLY_POP_1" "WEEKEND_POP_1"

  
  ERROR 209: undefined object MONTHLY_POP_1 at line 21897 of [DWF] section:
  11947            FLOW             14         "MONTHLY_POP_1" "HOURLY_POP_1" "WEEKEND_POP_1"

  
  ERROR 209: undefined object MONTHLY_POP_1 at line 21898 of [DWF] section:
  11948            FLOW             17         "MONTHLY_POP_1" "HOURLY_POP_1" "WEEKEND_POP_1"

  
  ERROR 209: undefined object MONTHLY_POP_1 at line 21899 of [DWF] section:
  11949            FLOW             21         "MONTHLY_POP_1" "HOURLY_POP_1" "WEEKEND_POP_1"

  
  ERROR 209: undefined object MONTHLY_POP_2 at line 21900 of [DWF] section:
  1195             FLOW             10         "MONTHLY_POP_2" "HOURLY_POP_2" "WEEKEND_POP_2"

  
  ERROR 209: undefined object MONTHLY_POP_1 at line 21901 of [DWF] section:
  11950            FLOW             10         "MONTHLY_POP_1" "HOURLY_POP_1" "WEEKEND_POP_1"

  
  ERROR 209: undefined object MONTHLY_POP_1 at line 21902 of [DWF] section:
  11951            FLOW             12         "MONTHLY_POP_1" "HOURLY_POP_1" "WEEKEND_POP_1"

  
  ERROR 209: undefined object MONTHLY_POP_1 at line 21903 of [DWF] section:
  11952            FLOW             16         "MONTHLY_POP_1" "HOURLY_POP_1" "WEEKEND_POP_1"

  
  ERROR 209: undefined object MONTHLY_POP_1 at line 21904 of [DWF] section:
  11953            FLOW             11         "MONTHLY_POP_1" "HOURLY_POP_1" "WEEKEND_POP_1"

  
  ERROR 209: undefined object MONTHLY_POP_1 at line 21905 of [DWF] section:
  11954            FLOW             20         "MONTHLY_POP_1" "HOURLY_POP_1" "WEEKEND_POP_1"

  
  ERROR 209: undefined object MONTHLY_POP_1 at line 21906 of [DWF] section:
  11956            FLOW             12         "MONTHLY_POP_1" "HOURLY_POP_1" "WEEKEND_POP_1"

  
  ERROR 209: undefined object MONTHLY_POP_1 at line 21907 of [DWF] section:
  11957            FLOW             11         "MONTHLY_POP_1" "HOURLY_POP_1" "WEEKEND_POP_1"

  
  ERROR 209: undefined object MONTHLY_POP_1 at line 21908 of [DWF] section:
  11958            FLOW             11         "MONTHLY_POP_1" "HOURLY_POP_1" "WEEKEND_POP_1"

  
  ERROR 209: undefined object MONTHLY_POP_1 at line 21909 of [DWF] section:
  11959            FLOW             17         "MONTHLY_POP_1" "HOURLY_POP_1" "WEEKEND_POP_1"

  
  ERROR 209: undefined object MONTHLY_POP_1 at line 21910 of [DWF] section:
  11960            FLOW             15         "MONTHLY_POP_1" "HOURLY_POP_1" "WEEKEND_POP_1"

  
  ERROR 209: undefined object MONTHLY_POP_1 at line 21911 of [DWF] section:
  11961            FLOW             12         "MONTHLY_POP_1" "HOURLY_POP_1" "WEEKEND_POP_1"

  
  ERROR 209: undefined object MONTHLY_POP_1 at line 21912 of [DWF] section:
  11962            FLOW             18         "MONTHLY_POP_1" "HOURLY_POP_1" "WEEKEND_POP_1"

  
  ERROR 209: undefined object MONTHLY_POP_1 at line 21913 of [DWF] section:
  11963            FLOW             18         "MONTHLY_POP_1" "HOURLY_POP_1" "WEEKEND_POP_1"

  
  ERROR 209: undefined object MONTHLY_POP_1 at line 21914 of [DWF] section:
  11964            FLOW             10         "MONTHLY_POP_1" "HOURLY_POP_1" "WEEKEND_POP_1"

  
  ERROR 209: undefined object MONTHLY_POP_1 at line 21915 of [DWF] section:
  11965            FLOW             13         "MONTHLY_POP_1" "HOURLY_POP_1" "WEEKEND_POP_1"

  
  ERROR 209: undefined object MONTHLY_POP_1 at line 21916 of [DWF] section:
  11966            FLOW             17         "MONTHLY_POP_1" "HOURLY_POP_1" "WEEKEND_POP_1"

  
  ERROR 209: undefined object MONTHLY_POP_1 at line 21917 of [DWF] section:
  11967            FLOW             20         "MONTHLY_POP_1" "HOURLY_POP_1" "WEEKEND_POP_1"

  
  ERROR 209: undefined object MONTHLY_POP_1 at line 21918 of [DWF] section:
  11968            FLOW             21         "MONTHLY_POP_1" "HOURLY_POP_1" "WEEKEND_POP_1"

  
  ERROR 209: undefined object MONTHLY_POP_1 at line 21919 of [DWF] section:
  11969            FLOW             27         "MONTHLY_POP_1" "HOURLY_POP_1" "WEEKEND_POP_1"

  
  ERROR 209: undefined object MONTHLY_POP_1 at line 21920 of [DWF] section:
  11970            FLOW             11         "MONTHLY_POP_1" "HOURLY_POP_1" "WEEKEND_POP_1"

  
  ERROR 209: undefined object MONTHLY_POP_1 at line 21921 of [DWF] section:
  11971            FLOW             13         "MONTHLY_POP_1" "HOURLY_POP_1" "WEEKEND_POP_1"

  
  ERROR 209: undefined object MONTHLY_POP_1 at line 21922 of [DWF] section:
  11972            FLOW             9          "MONTHLY_POP_1" "HOURLY_POP_1" "WEEKEND_POP_1"

  
  ERROR 209: undefined object MONTHLY_POP_1 at line 21923 of [DWF] section:
  11973            FLOW             11         "MONTHLY_POP_1" "HOURLY_POP_1" "WEEKEND_POP_1"

  
  ERROR 209: undefined object MONTHLY_POP_1 at line 21924 of [DWF] section:
  11974            FLOW             13         "MONTHLY_POP_1" "HOURLY_POP_1" "WEEKEND_POP_1"

  
  ERROR 209: undefined object MONTHLY_POP_1 at line 21925 of [DWF] section:
  11975            FLOW             14         "MONTHLY_POP_1" "HOURLY_POP_1" "WEEKEND_POP_1"

  
  ERROR 209: undefined object MONTHLY_POP_1 at line 21926 of [DWF] section:
  11976            FLOW             27         "MONTHLY_POP_1" "HOURLY_POP_1" "WEEKEND_POP_1"

  
  ERROR 209: undefined object MONTHLY_POP_1 at line 21927 of [DWF] section:
  11977            FLOW             31         "MONTHLY_POP_1" "HOURLY_POP_1" "WEEKEND_POP_1"

  
  ERROR 209: undefined object MONTHLY_POP_1 at line 21928 of [DWF] section:
  11978            FLOW             24         "MONTHLY_POP_1" "HOURLY_POP_1" "WEEKEND_POP_1"

  
  ERROR 209: undefined object MONTHLY_POP_1 at line 21929 of [DWF] section:
  11980            FLOW             9          "MONTHLY_POP_1" "HOURLY_POP_1" "WEEKEND_POP_1"

  
  ERROR 209: undefined object MONTHLY_POP_1 at line 21930 of [DWF] section:
  11981            FLOW             21         "MONTHLY_POP_1" "HOURLY_POP_1" "WEEKEND_POP_1"

  
  ERROR 209: undefined object MONTHLY_POP_1 at line 21931 of [DWF] section:
  11982            FLOW             31         "MONTHLY_POP_1" "HOURLY_POP_1" "WEEKEND_POP_1"

  
  ERROR 209: undefined object MONTHLY_POP_1 at line 21932 of [DWF] section:
  11983            FLOW             14         "MONTHLY_POP_1" "HOURLY_POP_1" "WEEKEND_POP_1"

  
  ERROR 209: undefined object MONTHLY_POP_1 at line 21933 of [DWF] section:
  11984            FLOW             27         "MONTHLY_POP_1" "HOURLY_POP_1" "WEEKEND_POP_1"

  
  ERROR 209: undefined object MONTHLY_POP_1 at line 21934 of [DWF] section:
  11985            FLOW             23         "MONTHLY_POP_1" "HOURLY_POP_1" "WEEKEND_POP_1"

  
  ERROR 209: undefined object MONTHLY_POP_1 at line 21935 of [DWF] section:
  11986            FLOW             6          "MONTHLY_POP_1" "HOURLY_POP_1" "WEEKEND_POP_1"

  
  Maximum error count exceeded.

  Analysis begun on:  Wed Jun 24 12:03:09 2026
  Analysis ended on:  Wed Jun 24 12:03:09 2026
  Total elapsed time: < 1 sec