
  EPA STORM WATER MANAGEMENT MODEL - VERSION 5.2 (Build 5.2.4)
  ------------------------------------------------------------

  
  ERROR 209: undefined object SPS1007-WET-WELL-CURVE at line 28869 of [STORAGE] section:
  SPS1001	0.000000	5.000000	0.000000	TABULAR	SPS1007-WET-WELL-CURVE	0.000000	0.000000

  
  ERROR 209: undefined object SPS1007-WET-WELL-CURVE at line 28871 of [STORAGE] section:
  SPS1002	0.000000	5.000000	0.000000	TABULAR	SPS1007-WET-WELL-CURVE	0.000000	0.000000

  
  ERROR 209: undefined object SPS1007-WET-WELL-CURVE at line 28872 of [STORAGE] section:
  SPS1003	0.000000	5.000000	0.000000	TABULAR	SPS1007-WET-WELL-CURVE	0.000000	0.000000

  
  ERROR 209: undefined object SPS1007-WET-WELL-CURVE at line 28873 of [STORAGE] section:
  SPS1004	0.000000	5.000000	0.000000	TABULAR	SPS1007-WET-WELL-CURVE	0.000000	0.000000

  
  ERROR 209: undefined object SPS1007-WET-WELL-CURVE at line 28874 of [STORAGE] section:
  SPS1005	0.000000	5.000000	0.000000	TABULAR	SPS1007-WET-WELL-CURVE	0.000000	0.000000

  
  ERROR 209: undefined object SPS1007-WET-WELL-CURVE at line 28875 of [STORAGE] section:
  SPS1006	30.320000	5.000000	0.000000	TABULAR	SPS1007-WET-WELL-CURVE	0.000000	0.000000

  
  ERROR 209: undefined object SPS1007-WET-WELL-CURVE at line 28877 of [STORAGE] section:
  SPS1007	30.628000	5.000000	0.000000	TABULAR	SPS1007-WET-WELL-CURVE	0.000000	0.000000

  
  ERROR 209: undefined object SPS1007-WET-WELL-CURVE at line 28878 of [STORAGE] section:
  SPS1008	0.000000	5.000000	0.000000	TABULAR	SPS1007-WET-WELL-CURVE	0.000000	0.000000

  
  ERROR 209: undefined object SPS1007-WET-WELL-CURVE at line 28879 of [STORAGE] section:
  SPS1010	0.000000	5.000000	0.000000	TABULAR	SPS1007-WET-WELL-CURVE	0.000000	0.000000

  
  ERROR 209: undefined object SPS1007-WET-WELL-CURVE at line 28880 of [STORAGE] section:
  SPS1011	0.000000	5.000000	0.000000	TABULAR	SPS1007-WET-WELL-CURVE	0.000000	0.000000

  
  ERROR 209: undefined object SPS1007-WET-WELL-CURVE at line 28881 of [STORAGE] section:
  SPS1012A	29.200000	5.000000	0.000000	TABULAR	SPS1007-WET-WELL-CURVE	0.000000	0.000000

  
  ERROR 209: undefined object SPS1007-WET-WELL-CURVE at line 28882 of [STORAGE] section:
  SPS1013A	30.110000	5.000000	0.000000	TABULAR	SPS1007-WET-WELL-CURVE	0.000000	0.000000

  
  ERROR 209: undefined object SPS1007-WET-WELL-CURVE at line 28883 of [STORAGE] section:
  SPS1014	0.000000	5.000000	0.000000	TABULAR	SPS1007-WET-WELL-CURVE	0.000000	0.000000

  
  ERROR 209: undefined object SPS1007-WET-WELL-CURVE at line 28884 of [STORAGE] section:
  SPS1014A	27.220000	5.000000	0.000000	TABULAR	SPS1007-WET-WELL-CURVE	0.000000	0.000000

  
  ERROR 209: undefined object SPS1007-WET-WELL-CURVE at line 28885 of [STORAGE] section:
  SPS1015	3.140000	5.000000	0.000000	TABULAR	SPS1007-WET-WELL-CURVE	0.000000	0.000000

  
  ERROR 209: undefined object SPS1007-WET-WELL-CURVE at line 28886 of [STORAGE] section:
  SPS1017A	-1.400000	5.000000	0.000000	TABULAR	SPS1007-WET-WELL-CURVE	0.000000	0.000000

  
  ERROR 209: undefined object SPS1007-WET-WELL-CURVE at line 28887 of [STORAGE] section:
  SPS1019	0.000000	5.000000	0.000000	TABULAR	SPS1007-WET-WELL-CURVE	0.000000	0.000000

  
  ERROR 209: undefined object SPS1007-WET-WELL-CURVE at line 28888 of [STORAGE] section:
  SPS1020	-4.370000	5.000000	0.000000	TABULAR	SPS1007-WET-WELL-CURVE	0.000000	0.000000

  
  ERROR 209: undefined object SPS1007-WET-WELL-CURVE at line 28889 of [STORAGE] section:
  SPS1022	0.000000	5.000000	0.000000	TABULAR	SPS1007-WET-WELL-CURVE	0.000000	0.000000

  
  ERROR 209: undefined object SPS1007-WET-WELL-CURVE at line 28890 of [STORAGE] section:
  SPS1023	0.000000	5.000000	0.000000	TABULAR	SPS1007-WET-WELL-CURVE	0.000000	0.000000

  
  ERROR 209: undefined object SPS1007-WET-WELL-CURVE at line 28891 of [STORAGE] section:
  SPS1024	0.000000	5.000000	0.000000	TABULAR	SPS1007-WET-WELL-CURVE	0.000000	0.000000

  
  ERROR 209: undefined object SPS1007-WET-WELL-CURVE at line 28892 of [STORAGE] section:
  SPS1025	0.000000	5.000000	0.000000	TABULAR	SPS1007-WET-WELL-CURVE	0.000000	0.000000

  
  ERROR 209: undefined object SPS1007-WET-WELL-CURVE at line 28893 of [STORAGE] section:
  SPS1031	0.000000	5.000000	0.000000	TABULAR	SPS1007-WET-WELL-CURVE	0.000000	0.000000

  
  ERROR 209: undefined object SPS1007-WET-WELL-CURVE at line 28894 of [STORAGE] section:
  SPS1032	28.340000	5.000000	0.000000	TABULAR	SPS1007-WET-WELL-CURVE	0.000000	0.000000

  
  ERROR 209: undefined object SPS1007-WET-WELL-CURVE at line 28895 of [STORAGE] section:
  SPS1033	26.448000	5.000000	0.000000	TABULAR	SPS1007-WET-WELL-CURVE	0.000000	0.000000

  
  ERROR 209: undefined object SPS1007-WET-WELL-CURVE at line 28896 of [STORAGE] section:
  SPS1034	38.000000	5.000000	0.000000	TABULAR	SPS1007-WET-WELL-CURVE	0.000000	0.000000

  
  ERROR 209: undefined object SPS1007-WET-WELL-CURVE at line 28897 of [STORAGE] section:
  SPS1035	0.000000	5.000000	0.000000	TABULAR	SPS1007-WET-WELL-CURVE	0.000000	0.000000

  
  ERROR 209: undefined object SPS1007-WET-WELL-CURVE at line 28898 of [STORAGE] section:
  SPS1036	0.000000	5.000000	0.000000	TABULAR	SPS1007-WET-WELL-CURVE	0.000000	0.000000

  
  ERROR 209: undefined object SPS1007-WET-WELL-CURVE at line 28899 of [STORAGE] section:
  SPS1037	0.000000	5.000000	0.000000	TABULAR	SPS1007-WET-WELL-CURVE	0.000000	0.000000

  
  ERROR 209: undefined object SPS1007-WET-WELL-CURVE at line 28900 of [STORAGE] section:
  SPS1038	0.000000	5.000000	0.000000	TABULAR	SPS1007-WET-WELL-CURVE	0.000000	0.000000

  
  ERROR 209: undefined object SPS1007-WET-WELL-CURVE at line 28901 of [STORAGE] section:
  SPS1039	0.000000	5.000000	0.000000	TABULAR	SPS1007-WET-WELL-CURVE	0.000000	0.000000

  
  ERROR 209: undefined object SPS1007-WET-WELL-CURVE at line 28902 of [STORAGE] section:
  SPS1040	-1.435000	5.000000	0.000000	TABULAR	SPS1007-WET-WELL-CURVE	0.000000	0.000000

  
  ERROR 209: undefined object SPS1007-WET-WELL-CURVE at line 28903 of [STORAGE] section:
  SPS1041	0.000000	5.000000	0.000000	TABULAR	SPS1007-WET-WELL-CURVE	0.000000	0.000000

  
  ERROR 209: undefined object SPS1007-WET-WELL-CURVE at line 28904 of [STORAGE] section:
  SPS1042	0.000000	5.000000	0.000000	TABULAR	SPS1007-WET-WELL-CURVE	0.000000	0.000000

  
  ERROR 209: undefined object SPS1007-WET-WELL-CURVE at line 28905 of [STORAGE] section:
  SPS1043	0.000000	5.000000	0.000000	TABULAR	SPS1007-WET-WELL-CURVE	0.000000	0.000000

  
  ERROR 209: undefined object SPS1007-WET-WELL-CURVE at line 28906 of [STORAGE] section:
  SPS1043A	-0.800000	5.000000	0.000000	TABULAR	SPS1007-WET-WELL-CURVE	0.000000	0.000000

  
  ERROR 209: undefined object SPS1007-WET-WELL-CURVE at line 28907 of [STORAGE] section:
  SPS1044	0.000000	5.000000	0.000000	TABULAR	SPS1007-WET-WELL-CURVE	0.000000	0.000000

  
  ERROR 209: undefined object SPS1007-WET-WELL-CURVE at line 28908 of [STORAGE] section:
  SPS1045	-3.500000	5.000000	0.000000	TABULAR	SPS1007-WET-WELL-CURVE	0.000000	0.000000

  
  ERROR 209: undefined object SPS1007-WET-WELL-CURVE at line 28909 of [STORAGE] section:
  SPS1047	-0.490000	5.000000	0.000000	TABULAR	SPS1007-WET-WELL-CURVE	0.000000	0.000000

  
  ERROR 209: undefined object SPS1007-WET-WELL-CURVE at line 28910 of [STORAGE] section:
  SPS1050	0.000000	5.000000	0.000000	TABULAR	SPS1007-WET-WELL-CURVE	0.000000	0.000000

  
  ERROR 209: undefined object SPS1007-WET-WELL-CURVE at line 28911 of [STORAGE] section:
  SPS1051	-2.302000	5.000000	0.000000	TABULAR	SPS1007-WET-WELL-CURVE	0.000000	0.000000

  
  ERROR 209: undefined object SPS1007-WET-WELL-CURVE at line 28912 of [STORAGE] section:
  SPS1061	0.000000	5.000000	0.000000	TABULAR	SPS1007-WET-WELL-CURVE	0.000000	0.000000

  
  ERROR 209: undefined object SPS1007-WET-WELL-CURVE at line 28913 of [STORAGE] section:
  SPS1062	0.000000	5.000000	0.000000	TABULAR	SPS1007-WET-WELL-CURVE	0.000000	0.000000

  
  ERROR 209: undefined object SPS1007-WET-WELL-CURVE at line 28914 of [STORAGE] section:
  SPS1063	0.000000	5.000000	0.000000	TABULAR	SPS1007-WET-WELL-CURVE	0.000000	0.000000

  
  ERROR 209: undefined object SPS1007-WET-WELL-CURVE at line 28915 of [STORAGE] section:
  SPS1064	0.000000	5.000000	0.000000	TABULAR	SPS1007-WET-WELL-CURVE	0.000000	0.000000

  
  ERROR 209: undefined object SPS1007-WET-WELL-CURVE at line 28916 of [STORAGE] section:
  SPS1065	0.000000	5.000000	0.000000	TABULAR	SPS1007-WET-WELL-CURVE	0.000000	0.000000

  
  ERROR 209: undefined object SPS1007-WET-WELL-CURVE at line 28917 of [STORAGE] section:
  SPS1066	0.000000	5.000000	0.000000	TABULAR	SPS1007-WET-WELL-CURVE	0.000000	0.000000

  
  ERROR 209: undefined object SPS1007-WET-WELL-CURVE at line 28918 of [STORAGE] section:
  SPS1067	0.000000	5.000000	0.000000	TABULAR	SPS1007-WET-WELL-CURVE	0.000000	0.000000

  
  ERROR 209: undefined object SPS1007-WET-WELL-CURVE at line 28919 of [STORAGE] section:
  SPS1068	0.000000	5.000000	0.000000	TABULAR	SPS1007-WET-WELL-CURVE	0.000000	0.000000

  
  ERROR 209: undefined object SPS1007-WET-WELL-CURVE at line 28920 of [STORAGE] section:
  SPS1069	0.000000	5.000000	0.000000	TABULAR	SPS1007-WET-WELL-CURVE	0.000000	0.000000

  
  ERROR 209: undefined object SPS1007-WET-WELL-CURVE at line 28921 of [STORAGE] section:
  SPS1070	0.000000	5.000000	0.000000	TABULAR	SPS1007-WET-WELL-CURVE	0.000000	0.000000

  
  ERROR 209: undefined object SPS1007-WET-WELL-CURVE at line 28922 of [STORAGE] section:
  SPS1071	0.000000	5.000000	0.000000	TABULAR	SPS1007-WET-WELL-CURVE	0.000000	0.000000

  
  ERROR 209: undefined object SPS1007-WET-WELL-CURVE at line 28923 of [STORAGE] section:
  SPS1072	0.000000	5.000000	0.000000	TABULAR	SPS1007-WET-WELL-CURVE	0.000000	0.000000

  
  ERROR 209: undefined object SPS1007-WET-WELL-CURVE at line 28924 of [STORAGE] section:
  SPS1074	12.200000	5.000000	0.000000	TABULAR	SPS1007-WET-WELL-CURVE	0.000000	0.000000

  
  ERROR 209: undefined object SPS1007-WET-WELL-CURVE at line 28925 of [STORAGE] section:
  SPS1075	6.910000	5.000000	0.000000	TABULAR	SPS1007-WET-WELL-CURVE	0.000000	0.000000

  
  ERROR 209: undefined object SPS1007-WET-WELL-CURVE at line 28926 of [STORAGE] section:
  SPS1076	0.000000	5.000000	0.000000	TABULAR	SPS1007-WET-WELL-CURVE	0.000000	0.000000

  
  ERROR 209: undefined object SPS1007-WET-WELL-CURVE at line 28927 of [STORAGE] section:
  SPS1078	0.000000	5.000000	0.000000	TABULAR	SPS1007-WET-WELL-CURVE	0.000000	0.000000

  
  ERROR 209: undefined object SPS1007-WET-WELL-CURVE at line 28928 of [STORAGE] section:
  SPS1081	0.180000	5.000000	0.000000	TABULAR	SPS1007-WET-WELL-CURVE	0.000000	0.000000

  
  ERROR 209: undefined object SPS1007-WET-WELL-CURVE at line 28929 of [STORAGE] section:
  SPS1082	4.000000	5.000000	0.000000	TABULAR	SPS1007-WET-WELL-CURVE	0.000000	0.000000

  
  ERROR 209: undefined object SPS1007-WET-WELL-CURVE at line 28930 of [STORAGE] section:
  SPS1083	-2.010000	5.000000	0.000000	TABULAR	SPS1007-WET-WELL-CURVE	0.000000	0.000000

  
  ERROR 209: undefined object SPS1007-WET-WELL-CURVE at line 28931 of [STORAGE] section:
  SPS2001	27.400000	5.000000	0.000000	TABULAR	SPS1007-WET-WELL-CURVE	0.000000	0.000000

  
  ERROR 209: undefined object SPS1007-WET-WELL-CURVE at line 28932 of [STORAGE] section:
  SPS2002	0.000000	5.000000	0.000000	TABULAR	SPS1007-WET-WELL-CURVE	0.000000	0.000000

  
  ERROR 209: undefined object SPS1007-WET-WELL-CURVE at line 28933 of [STORAGE] section:
  SPS2003	-3.185000	5.000000	0.000000	TABULAR	SPS1007-WET-WELL-CURVE	0.000000	0.000000

  
  ERROR 209: undefined object SPS1007-WET-WELL-CURVE at line 28934 of [STORAGE] section:
  SPS2004	0.000000	5.000000	0.000000	TABULAR	SPS1007-WET-WELL-CURVE	0.000000	0.000000

  
  ERROR 209: undefined object SPS1007-WET-WELL-CURVE at line 28935 of [STORAGE] section:
  SPS2005	0.000000	5.000000	0.000000	TABULAR	SPS1007-WET-WELL-CURVE	0.000000	0.000000

  
  ERROR 209: undefined object SPS1007-WET-WELL-CURVE at line 28936 of [STORAGE] section:
  SPS2007	0.000000	5.000000	0.000000	TABULAR	SPS1007-WET-WELL-CURVE	0.000000	0.000000

  
  ERROR 209: undefined object SPS1007-WET-WELL-CURVE at line 28937 of [STORAGE] section:
  SPS2009	4.500000	5.000000	0.000000	TABULAR	SPS1007-WET-WELL-CURVE	0.000000	0.000000

  
  ERROR 209: undefined object SPS1007-WET-WELL-CURVE at line 28938 of [STORAGE] section:
  SPS2010	0.000000	5.000000	0.000000	TABULAR	SPS1007-WET-WELL-CURVE	0.000000	0.000000

  
  ERROR 209: undefined object SPS1007-WET-WELL-CURVE at line 28939 of [STORAGE] section:
  SPS2011	0.000000	5.000000	0.000000	TABULAR	SPS1007-WET-WELL-CURVE	0.000000	0.000000

  
  ERROR 209: undefined object SPS1007-WET-WELL-CURVE at line 28940 of [STORAGE] section:
  SPS2012	-3.360000	5.000000	0.000000	TABULAR	SPS1007-WET-WELL-CURVE	0.000000	0.000000

  
  ERROR 209: undefined object SPS1007-WET-WELL-CURVE at line 28941 of [STORAGE] section:
  SPS2013	0.000000	5.000000	0.000000	TABULAR	SPS1007-WET-WELL-CURVE	0.000000	0.000000

  
  ERROR 209: undefined object SPS1007-WET-WELL-CURVE at line 28942 of [STORAGE] section:
  SPS2017	-3.750000	5.000000	0.000000	TABULAR	SPS1007-WET-WELL-CURVE	0.000000	0.000000

  
  ERROR 209: undefined object SPS1007-WET-WELL-CURVE at line 28943 of [STORAGE] section:
  SPS2018	-3.800000	5.000000	0.000000	TABULAR	SPS1007-WET-WELL-CURVE	0.000000	0.000000

  
  ERROR 209: undefined object SPS1007-WET-WELL-CURVE at line 28944 of [STORAGE] section:
  SPS2020	-3.420000	5.000000	0.000000	TABULAR	SPS1007-WET-WELL-CURVE	0.000000	0.000000

  
  ERROR 209: undefined object SPS1007-WET-WELL-CURVE at line 28945 of [STORAGE] section:
  SPS2021	0.000000	5.000000	0.000000	TABULAR	SPS1007-WET-WELL-CURVE	0.000000	0.000000

  
  ERROR 209: undefined object SPS1007-WET-WELL-CURVE at line 28946 of [STORAGE] section:
  SPS2022	9.600000	5.000000	0.000000	TABULAR	SPS1007-WET-WELL-CURVE	0.000000	0.000000

  
  ERROR 209: undefined object SPS1007-WET-WELL-CURVE at line 28947 of [STORAGE] section:
  SPS2023	0.000000	5.000000	0.000000	TABULAR	SPS1007-WET-WELL-CURVE	0.000000	0.000000

  
  ERROR 209: undefined object SPS1007-WET-WELL-CURVE at line 28948 of [STORAGE] section:
  SPS2024	0.000000	5.000000	0.000000	TABULAR	SPS1007-WET-WELL-CURVE	0.000000	0.000000

  
  ERROR 209: undefined object SPS1007-WET-WELL-CURVE at line 28949 of [STORAGE] section:
  SPS2025	0.000000	5.000000	0.000000	TABULAR	SPS1007-WET-WELL-CURVE	0.000000	0.000000

  
  ERROR 209: undefined object SPS1007-WET-WELL-CURVE at line 28950 of [STORAGE] section:
  SPS3001	0.000000	5.000000	0.000000	TABULAR	SPS1007-WET-WELL-CURVE	0.000000	0.000000

  
  ERROR 209: undefined object SPS1007-WET-WELL-CURVE at line 28951 of [STORAGE] section:
  SPS3002	0.000000	5.000000	0.000000	TABULAR	SPS1007-WET-WELL-CURVE	0.000000	0.000000

  
  ERROR 209: undefined object SPS1007-WET-WELL-CURVE at line 28952 of [STORAGE] section:
  SPS3003	0.000000	5.000000	0.000000	TABULAR	SPS1007-WET-WELL-CURVE	0.000000	0.000000

  
  ERROR 209: undefined object SPS1007-WET-WELL-CURVE at line 28953 of [STORAGE] section:
  SPS3004	0.000000	5.000000	0.000000	TABULAR	SPS1007-WET-WELL-CURVE	0.000000	0.000000

  
  ERROR 209: undefined object SPS1007-WET-WELL-CURVE at line 28954 of [STORAGE] section:
  SPS3005	-1.805000	5.000000	0.000000	TABULAR	SPS1007-WET-WELL-CURVE	0.000000	0.000000

  
  ERROR 209: undefined object SPS1007-WET-WELL-CURVE at line 28955 of [STORAGE] section:
  SPS3006	0.000000	5.000000	0.000000	TABULAR	SPS1007-WET-WELL-CURVE	0.000000	0.000000

  
  ERROR 209: undefined object SPS1007-WET-WELL-CURVE at line 28957 of [STORAGE] section:
  SPS3007	0.000000	5.000000	0.000000	TABULAR	SPS1007-WET-WELL-CURVE	0.000000	0.000000

  
  ERROR 209: undefined object SPS1007-WET-WELL-CURVE at line 28958 of [STORAGE] section:
  SPS3008	0.000000	5.000000	0.000000	TABULAR	SPS1007-WET-WELL-CURVE	0.000000	0.000000

  
  ERROR 209: undefined object SPS1007-WET-WELL-CURVE at line 28959 of [STORAGE] section:
  SPS3009	0.000000	5.000000	0.000000	TABULAR	SPS1007-WET-WELL-CURVE	0.000000	0.000000

  
  ERROR 209: undefined object SPS1007-WET-WELL-CURVE at line 28960 of [STORAGE] section:
  SPS3010	0.000000	5.000000	0.000000	TABULAR	SPS1007-WET-WELL-CURVE	0.000000	0.000000

  
  ERROR 209: undefined object SPS1007-WET-WELL-CURVE at line 28961 of [STORAGE] section:
  SPS3011	0.000000	5.000000	0.000000	TABULAR	SPS1007-WET-WELL-CURVE	0.000000	0.000000

  
  ERROR 209: undefined object SPS1007-WET-WELL-CURVE at line 28962 of [STORAGE] section:
  SPS3012	0.000000	5.000000	0.000000	TABULAR	SPS1007-WET-WELL-CURVE	0.000000	0.000000

  
  ERROR 209: undefined object SPS1007-WET-WELL-CURVE at line 28963 of [STORAGE] section:
  SPS3013	0.000000	5.000000	0.000000	TABULAR	SPS1007-WET-WELL-CURVE	0.000000	0.000000

  
  ERROR 209: undefined object SPS1007-WET-WELL-CURVE at line 28964 of [STORAGE] section:
  SPS3014	0.000000	5.000000	0.000000	TABULAR	SPS1007-WET-WELL-CURVE	0.000000	0.000000

  
  ERROR 209: undefined object SPS1007-WET-WELL-CURVE at line 28965 of [STORAGE] section:
  SPS3016	0.000000	5.000000	0.000000	TABULAR	SPS1007-WET-WELL-CURVE	0.000000	0.000000

  
  ERROR 209: undefined object SPS1007-WET-WELL-CURVE at line 28966 of [STORAGE] section:
  SPS3017	0.000000	5.000000	0.000000	TABULAR	SPS1007-WET-WELL-CURVE	0.000000	0.000000

  
  ERROR 209: undefined object SPS1007-WET-WELL-CURVE at line 28967 of [STORAGE] section:
  SPS3021	-1.000000	5.000000	0.000000	TABULAR	SPS1007-WET-WELL-CURVE	0.000000	0.000000

  
  ERROR 209: undefined object SPS1007-WET-WELL-CURVE at line 28968 of [STORAGE] section:
  SPS3022	-0.500000	5.000000	0.000000	TABULAR	SPS1007-WET-WELL-CURVE	0.000000	0.000000

  
  ERROR 209: undefined object SPS1007-WET-WELL-CURVE at line 28969 of [STORAGE] section:
  SPS3024	0.540000	5.000000	0.000000	TABULAR	SPS1007-WET-WELL-CURVE	0.000000	0.000000

  
  ERROR 209: undefined object SPS1007-WET-WELL-CURVE at line 28970 of [STORAGE] section:
  SPS3025	4.670000	5.000000	0.000000	TABULAR	SPS1007-WET-WELL-CURVE	0.000000	0.000000

  
  ERROR 209: undefined object SPS1007-WET-WELL-CURVE at line 28971 of [STORAGE] section:
  SPS3026	5.300000	5.000000	0.000000	TABULAR	SPS1007-WET-WELL-CURVE	0.000000	0.000000

  
  Maximum error count exceeded.

  Analysis begun on:  Wed Jun 24 12:03:09 2026
  Analysis ended on:  Wed Jun 24 12:03:09 2026
  Total elapsed time: < 1 sec