
  EPA STORM WATER MANAGEMENT MODEL - VERSION 5.2 (Build 5.2.4)
  ------------------------------------------------------------

  WARNING 04: minimum elevation drop used for Conduit 27
  WARNING 04: minimum elevation drop used for Conduit 216
  WARNING 02: maximum depth increased for Node J113
  WARNING 02: maximum depth increased for Node J188
  WARNING 02: maximum depth increased for Node J193
  WARNING 02: maximum depth increased for Node J371
  WARNING 02: maximum depth increased for Node J372
  WARNING 02: maximum depth increased for Node J373
  WARNING 02: maximum depth increased for Node J374
  WARNING 02: maximum depth increased for Node J375
  WARNING 02: maximum depth increased for Node J376
  WARNING 02: maximum depth increased for Node J377
  WARNING 02: maximum depth increased for Node J378
  WARNING 02: maximum depth increased for Node J379
  WARNING 02: maximum depth increased for Node J380
  WARNING 02: maximum depth increased for Node J381
  WARNING 02: maximum depth increased for Node J384
  WARNING 02: maximum depth increased for Node J385
  WARNING 02: maximum depth increased for Node J386
  WARNING 02: maximum depth increased for Node J387
  WARNING 02: maximum depth increased for Node J388
  WARNING 02: maximum depth increased for Node J389
  WARNING 02: maximum depth increased for Node J390
  WARNING 02: maximum depth increased for Node J391
  WARNING 02: maximum depth increased for Node J392
  WARNING 02: maximum depth increased for Node J393
  WARNING 02: maximum depth increased for Node J394
  WARNING 02: maximum depth increased for Node J395
  WARNING 02: maximum depth increased for Node J396
  WARNING 02: maximum depth increased for Node J397
  WARNING 02: maximum depth increased for Node J398
  WARNING 02: maximum depth increased for Node J399
  WARNING 02: maximum depth increased for Node J400
  
  ****************
  Analysis Options
  ****************
  Flow Units ............... CMS
  Process Models:
    Rainfall/Runoff ........ YES
    RDII ................... NO
    Snowmelt ............... NO
    Groundwater ............ NO
    Flow Routing ........... YES
    Ponding Allowed ........ YES
    Water Quality .......... NO
  Infiltration Method ...... HORTON
  Flow Routing Method ...... KINWAVE
  Starting Date ............ 07/08/2015 00:00:00
  Ending Date .............. 07/09/2015 00:00:00
  Antecedent Dry Days ...... 0.0
  Report Time Step ......... 00:15:00
  Wet Time Step ............ 00:05:00
  Dry Time Step ............ 01:00:00
  Routing Time Step ........ 30.00 sec
  
  
  **************************        Volume         Depth
  Runoff Quantity Continuity     hectare-m            mm
  **************************     ---------       -------
  Total Precipitation ......         9.789       503.285
  Evaporation Loss .........         0.000         0.000
  Infiltration Loss ........         0.001         0.073
  Surface Runoff ...........         7.800       401.014
  Final Storage ............         1.997       102.656
  Continuity Error (%) .....        -0.091
  
  
  **************************        Volume        Volume
  Flow Routing Continuity        hectare-m      10^6 ltr
  **************************     ---------     ---------
  Dry Weather Inflow .......         0.000         0.000
  Wet Weather Inflow .......         7.791        77.910
  Groundwater Inflow .......         0.000         0.000
  RDII Inflow ..............         0.000         0.000
  External Inflow ..........         0.000         0.000
  External Outflow .........         2.996        29.956
  Flooding Loss ............         4.275        42.748
  Evaporation Loss .........         0.000         0.000
  Exfiltration Loss ........         0.000         0.000
  Initial Stored Volume ....         0.008         0.079
  Final Stored Volume ......         0.484         4.839
  Continuity Error (%) .....         0.571
  
  
  ********************************
  Highest Flow Instability Indexes
  ********************************
  Link PumpSR (5)
  Link PumpSL (3)
  Link 273 (1)
  Link 185 (1)
  
  
  *************************
  Routing Time Step Summary
  *************************
  Minimum Time Step           :    30.00 sec
  Average Time Step           :    30.00 sec
  Maximum Time Step           :    30.00 sec
  % of Time in Steady State   :     0.00
  Average Iterations per Step :     1.04
  % of Steps Not Converging   :     0.00
  
  
  ***************************
  Subcatchment Runoff Summary
  ***************************
  
  ------------------------------------------------------------------------------------------------------------------------------
                            Total      Total      Total      Total     Imperv       Perv      Total       Total     Peak  Runoff
                           Precip      Runon       Evap      Infil     Runoff     Runoff     Runoff      Runoff   Runoff   Coeff
  Subcatchment                 mm         mm         mm         mm         mm         mm         mm    10^6 ltr      CMS
  ------------------------------------------------------------------------------------------------------------------------------
  S25                      503.29       0.00       0.00       0.12      24.99     393.77     393.77        0.28     0.02   0.782
  S26                      503.29       0.00       0.00       0.12      25.02     407.02     407.02        0.16     0.01   0.809
  S27                      503.29       0.00       0.00       0.12      25.05     418.24     418.24        0.08     0.01   0.831
  S28                      503.29       0.00       0.00       0.12      25.08     426.89     426.89        0.04     0.00   0.848
  S29                      503.29       0.00       0.00       0.06     241.48     198.98     440.46        0.84     0.07   0.875
  S30                      503.29       0.00       0.00       0.06     241.96     200.64     442.60        0.71     0.06   0.879
  S31                      503.29       0.00       0.00       0.06     241.96     200.64     442.60        0.71     0.06   0.879
  S32                      503.29       0.00       0.00       0.06     242.56     202.68     445.24        0.58     0.05   0.885
  S33                      503.29       0.00       0.00       0.06     243.00     204.15     447.14        0.49     0.04   0.888
  S34                      503.29       0.00       0.00       0.06     244.39     208.61     453.00        0.27     0.03   0.900
  S35                      503.29       0.00       0.00       0.06     244.79     209.84     454.63        0.23     0.02   0.903
  S36                      503.29       0.00       0.00       0.06     244.39     208.61     453.00        0.27     0.03   0.900
  S37                      503.29       0.00       0.00       0.06     245.29     211.34     456.64        0.18     0.02   0.907
  S38                      503.29       0.00       0.00       0.06     246.44     214.57     461.01        0.09     0.01   0.916
  S39                      503.29       0.00       0.00       0.06     247.43     217.14     464.57        0.05     0.01   0.923
  S40                      503.29       0.00       0.00       0.06     244.39     208.61     453.00        0.27     0.03   0.900
  S41                      503.29       0.00       0.00       0.06     245.75     212.65     458.40        0.14     0.01   0.911
  S42                      503.29       0.00       0.00       0.06     245.75     212.65     458.40        0.14     0.01   0.911
  S43                      503.29       0.00       0.00       0.06     246.44     214.57     461.01        0.09     0.01   0.916
  S44                      503.29       0.00       0.00       0.06     244.39     208.61     453.00        0.27     0.03   0.900
  S45                      503.29       0.00       0.00       0.06     246.44     214.57     461.01        0.09     0.01   0.916
  S46                      503.29       0.00       0.00       0.06     245.75     212.65     458.40        0.14     0.01   0.911
  S47                      503.29       0.00       0.00       0.06     244.79     209.84     454.63        0.23     0.02   0.903
  S48                      503.29       0.00       0.00       0.06     244.79     209.84     454.63        0.23     0.02   0.903
  S49                      503.29       0.00       0.00       0.06     245.75     212.65     458.40        0.14     0.01   0.911
  S50                      503.29       0.00       0.00       0.06     245.75     212.65     458.40        0.14     0.01   0.911
  S51                      503.29       0.00       0.00       0.06     245.29     211.34     456.64        0.18     0.02   0.907
  S52                      503.29       0.00       0.00       0.06     245.75     212.65     458.40        0.14     0.01   0.911
  S53                      503.29       0.00       0.00       0.06     246.44     214.57     461.01        0.09     0.01   0.916
  S54                      503.29       0.00       0.00       0.06     246.44     214.57     461.01        0.09     0.01   0.916
  S55                      503.29       0.00       0.00       0.06     246.44     214.57     461.01        0.09     0.01   0.916
  S56                      503.29       0.00       0.00       0.06     244.79     209.84     454.63        0.23     0.02   0.903
  S57                      503.29       0.00       0.00       0.02     388.43      87.09     475.52        0.24     0.03   0.945
  S58                      503.29       0.00       0.00       0.02     390.53      87.63     478.16        0.14     0.02   0.950
  S59                      503.29       0.00       0.00       0.02     390.53      87.63     478.16        0.14     0.02   0.950
  S60                      503.29       0.00       0.00       0.02     388.43      87.09     475.52        0.24     0.03   0.945
  S61                      503.29       0.00       0.00       0.02     385.63      86.37     472.00        0.42     0.04   0.938
  S62                      503.29       0.00       0.00       0.02     385.63      86.37     472.00        0.42     0.04   0.938
  S63                      503.29       0.00       0.00       0.02     387.53      86.86     474.39        0.28     0.03   0.943
  S64                      503.29       0.00       0.00       0.02     386.79      86.67     473.46        0.33     0.03   0.941
  S65                      503.29       0.00       0.00       0.02     386.79      86.67     473.46        0.33     0.03   0.941
  S66                      503.29       0.00       0.00       0.02     389.54      87.37     476.91        0.19     0.02   0.948
  S67                      503.29       0.00       0.00       0.02     389.54      87.37     476.91        0.19     0.02   0.948
  S68                      503.29       0.00       0.00       0.02     387.53      86.86     474.39        0.28     0.03   0.943
  S69                      503.29       0.00       0.00       0.02     388.43      87.09     475.52        0.24     0.03   0.945
  S70                      503.29       0.00       0.00       0.02     392.03      88.01     480.04        0.10     0.01   0.954
  S71                      503.29       0.00       0.00       0.02     389.54      87.37     476.91        0.19     0.02   0.948
  S72                      503.29       0.00       0.00       0.02     390.53      87.63     478.16        0.14     0.02   0.950
  S73                      503.29       0.00       0.00       0.02     385.63      86.37     472.00        0.42     0.04   0.938
  S74                      503.29       0.00       0.00       0.02     385.16      86.25     471.41        0.47     0.05   0.937
  S75                      503.29       0.00       0.00       0.02     392.03      88.01     480.04        0.10     0.01   0.954
  S76                      503.29       0.00       0.00       0.02     388.43      87.09     475.52        0.24     0.03   0.945
  S77                      503.29       0.00       0.00       0.02     392.03      88.01     480.04        0.10     0.01   0.954
  S78                      503.29       0.00       0.00       0.02     390.53      87.63     478.16        0.14     0.02   0.950
  S79                      503.29       0.00       0.00       0.02     390.53      87.63     478.16        0.14     0.02   0.950
  S80                      503.29       0.00       0.00       0.02     387.53      86.86     474.39        0.28     0.03   0.943
  S81                      503.29       0.00       0.00       0.02     388.43      87.09     475.52        0.24     0.03   0.945
  S82                      503.29       0.00       0.00       0.02     385.63      86.37     472.00        0.42     0.04   0.938
  S83                      503.29       0.00       0.00       0.02     385.63      86.37     472.00        0.42     0.04   0.938
  S84                      503.29       0.00       0.00       0.02     392.03      88.01     480.04        0.10     0.01   0.954
  S85                      503.29       0.00       0.00       0.02     388.43      87.09     475.52        0.24     0.03   0.945
  S86                      503.29       0.00       0.00       0.02     390.53      87.63     478.16        0.14     0.02   0.950
  S88                      503.29       0.00       0.00       0.02     382.90      85.66     468.56        0.42     0.04   0.931
  S89                      503.29       0.00       0.00       0.02     390.53      87.63     478.16        0.14     0.02   0.950
  S90                      503.29       0.00       0.00       0.02     388.43      87.09     475.52        0.24     0.03   0.945
  S91                      503.29       0.00       0.00       0.02     385.63      86.37     472.00        0.42     0.04   0.938
  S92                      503.29       0.00       0.00       0.02     385.16      86.25     471.41        0.47     0.05   0.937
  S93                      503.29       0.00       0.00       0.02     390.53      87.63     478.16        0.14     0.02   0.950
  S94                      503.29       0.00       0.00       0.02     389.54      87.37     476.91        0.19     0.02   0.948
  S95                      503.29       0.00       0.00       0.02     390.53      87.63     478.16        0.14     0.02   0.950
  S96                      503.29       0.00       0.00       0.02     387.53      86.86     474.39        0.28     0.03   0.943
  S97                      503.29       0.00       0.00       0.02     386.79      86.67     473.46        0.33     0.03   0.941
  S98                      503.29       0.00       0.00       0.02     387.53      86.86     474.39        0.28     0.03   0.943
  S99                      503.29       0.00       0.00       0.02     390.53      87.63     478.16        0.14     0.02   0.950
  S100                     503.29       0.00       0.00       0.02     389.54      87.37     476.91        0.19     0.02   0.948
  S101                     503.29       0.00       0.00       0.02     390.53      87.63     478.16        0.14     0.02   0.950
  S102                     503.29       0.00       0.00       0.02     387.53      86.86     474.39        0.28     0.03   0.943
  S103                     503.29       0.00       0.00       0.02     386.79      86.67     473.46        0.33     0.03   0.941
  S104                     503.29       0.00       0.00       0.02     387.53      86.86     474.39        0.28     0.03   0.943
  S105                     503.29       0.00       0.00       0.02     390.53      87.63     478.16        0.14     0.02   0.950
  S106                     503.29       0.00       0.00       0.02     390.53      87.63     478.16        0.14     0.02   0.950
  S107                     503.29       0.00       0.00       0.02     390.53      87.63     478.16        0.14     0.02   0.950
  S108                     503.29       0.00       0.00       0.02     386.79      86.67     473.46        0.33     0.03   0.941
  S109                     503.29       0.00       0.00       0.02     386.79      86.67     473.46        0.33     0.03   0.941
  S110                     503.29       0.00       0.00       0.02     386.79      86.67     473.46        0.33     0.03   0.941
  S111                     503.29       0.00       0.00       0.10      99.45     333.63     433.07        0.09     0.01   0.860
  S112                     503.29       0.00       0.00       0.10      99.18     312.87     412.05        0.16     0.01   0.819
  S113                     503.29       0.00       0.00       0.02     389.54      87.37     476.91        0.19     0.02   0.948
  S114                     503.29       0.00       0.00       0.02     388.43      87.09     475.52        0.24     0.03   0.945
  S115                     503.29       0.00       0.00       0.02     392.03      88.01     480.04        0.10     0.01   0.954
  S116                     503.29       0.00       0.00       0.02     390.53      87.63     478.16        0.14     0.02   0.950
  S117                     503.29       0.00       0.00       0.02     392.03      88.01     480.04        0.10     0.01   0.954
  S118                     503.29       0.00       0.00       0.10      99.29     321.20     420.48        0.13     0.01   0.835
  S119                     503.29       0.00       0.00       0.10      99.29     321.20     420.48        0.13     0.01   0.835
  S120                     503.29       0.00       0.00       0.10      99.29     321.20     420.48        0.13     0.01   0.835
  S121                     503.29       0.00       0.00       0.10      99.45     333.63     433.07        0.09     0.01   0.860
  S122                     503.29       0.00       0.00       0.10      99.18     312.87     412.05        0.16     0.01   0.819
  S123                     503.29       0.00       0.00       0.10      98.83     285.16     383.99        0.31     0.02   0.763
  S124                     503.29       0.00       0.00       0.10      98.78     280.94     379.72        0.34     0.02   0.754
  S125                     503.29       0.00       0.00       0.10      99.29     321.20     420.48        0.13     0.01   0.835
  S126                     503.29       0.00       0.00       0.10      99.18     312.87     412.05        0.16     0.01   0.819
  S127                     503.29       0.00       0.00       0.10      99.29     321.20     420.48        0.13     0.01   0.835
  S128                     503.29       0.00       0.00       0.02     392.03      88.01     480.04        0.10     0.01   0.954
  S129                     503.29       0.00       0.00       0.02     390.53      87.63     478.16        0.14     0.02   0.950
  S130                     503.29       0.00       0.00       0.02     389.54      87.37     476.91        0.19     0.02   0.948
  S131                     503.29       0.00       0.00       0.02     388.43      87.09     475.52        0.24     0.03   0.945
  S132                     503.29       0.00       0.00       0.02     386.16      86.51     472.67        0.38     0.04   0.939
  S133                     503.29       0.00       0.00       0.02     385.63      86.37     472.00        0.42     0.04   0.938
  S134                     503.29       0.00       0.00       0.02     389.54      87.37     476.91        0.19     0.02   0.948
  S135                     503.29       0.00       0.00       0.02     388.43      87.09     475.52        0.24     0.03   0.945
  S136                     503.29       0.00       0.00       0.02     390.53      87.63     478.16        0.14     0.02   0.950
  S137                     503.29       0.00       0.00       0.02     387.53      86.86     474.39        0.28     0.03   0.943
  S138                     503.29       0.00       0.00       0.02     390.53      87.63     478.16        0.14     0.02   0.950
  S139                     503.29       0.00       0.00       0.02     387.53      86.86     474.39        0.28     0.03   0.943
  S140                     503.29       0.00       0.00       0.02     385.63      86.37     472.00        0.42     0.04   0.938
  S141                     503.29       0.00       0.00       0.02     385.16      86.25     471.41        0.47     0.05   0.937
  S142                     503.29       0.00       0.00       0.02     389.54      87.37     476.91        0.19     0.02   0.948
  S143                     503.29       0.00       0.00       0.02     389.54      87.37     476.91        0.19     0.02   0.948
  S144                     503.29       0.00       0.00       0.02     387.53      86.86     474.39        0.28     0.03   0.943
  S145                     503.29       0.00       0.00       0.02     387.53      86.86     474.39        0.28     0.03   0.943
  S146                     503.29       0.00       0.00       0.02     387.53      86.86     474.39        0.28     0.03   0.943
  S147                     503.29       0.00       0.00       0.02     390.53      87.63     478.16        0.14     0.02   0.950
  S148                     503.29       0.00       0.00       0.02     390.53      87.63     478.16        0.14     0.02   0.950
  S149                     503.29       0.00       0.00       0.02     390.53      87.63     478.16        0.14     0.02   0.950
  S150                     503.29       0.00       0.00       0.02     386.79      86.67     473.46        0.33     0.03   0.941
  S151                     503.29       0.00       0.00       0.02     386.79      86.67     473.46        0.33     0.03   0.941
  S152                     503.29       0.00       0.00       0.02     386.79      86.67     473.46        0.33     0.03   0.941
  S153                     503.29       0.00       0.00       0.02     390.53      87.63     478.16        0.14     0.02   0.950
  S154                     503.29       0.00       0.00       0.02     390.53      87.63     478.16        0.14     0.02   0.950
  S155                     503.29       0.00       0.00       0.02     390.53      87.63     478.16        0.14     0.02   0.950
  S156                     503.29       0.00       0.00       0.02     384.00      89.24     473.24        0.52     0.05   0.940
  S157                     503.29       0.00       0.00       0.02     385.23      90.09     475.31        0.43     0.04   0.944
  S158                     503.29       0.00       0.00       0.02     384.76      89.77     474.53        0.47     0.04   0.943
  S159                     503.29       0.00       0.00       0.02     385.23      90.09     475.31        0.43     0.04   0.944
  S160                     503.29       0.00       0.00       0.12      24.93     367.40     367.40        0.62     0.03   0.730
  S161                     503.29       0.00       0.00       0.12      24.87     337.13     337.13        1.21     0.05   0.670
  S162                     503.29       0.00       0.00       0.12      24.87     337.13     337.13        1.21     0.05   0.670
  S163                     503.29       0.00       0.00       0.12      24.90     352.97     352.97        0.88     0.04   0.701
  S164                     503.29       0.00       0.00       0.12      24.95     376.85     376.85        0.49     0.02   0.749
  S165                     503.29       0.00       0.00       0.12      24.91     356.42     356.42        0.82     0.03   0.708
  S166                     503.29       0.00       0.00       0.12      24.88     343.11     343.11        1.10     0.04   0.682
  S167                     503.29       0.00       0.00       0.02     380.61      86.86     467.48        0.84     0.07   0.929
  S168                     503.29       0.00       0.00       0.02     386.39      90.87     477.26        0.33     0.03   0.948
  S169                     503.29       0.00       0.00       0.12      24.99     397.41     397.41        0.24     0.01   0.790
  S170                     503.29       0.00       0.00       0.12      24.96     381.88     381.88        0.42     0.02   0.759
  S171                     503.29       0.00       0.00       0.12      24.95     376.85     376.85        0.49     0.02   0.749
  S172                     503.29       0.00       0.00       0.12      24.99     397.41     397.41        0.24     0.01   0.790
  S173                     503.29       0.00       0.00       0.12      24.95     376.85     376.85        0.49     0.02   0.749
  S174                     503.29       0.00       0.00       0.12      24.95     376.85     376.85        0.49     0.02   0.749
  S175                     503.29       0.00       0.00       0.12      24.96     381.88     381.88        0.42     0.02   0.759
  S176                     503.29       0.00       0.00       0.12      24.99     393.77     393.77        0.28     0.02   0.782
  S177                     503.29       0.00       0.00       0.12      24.99     397.41     397.41        0.24     0.01   0.790
  S181                     503.29       0.00       0.00       0.12      24.92     362.27     362.27        0.72     0.03   0.720
  S182                     503.29       0.00       0.00       0.12      25.00     401.76     401.76        0.20     0.01   0.798
  S183                     503.29       0.00       0.00       0.12      25.02     407.02     407.02        0.16     0.01   0.809
  S184                     503.29       0.00       0.00       0.11      49.72     300.69     350.41        0.28     0.01   0.696
  S185                     503.29       0.00       0.00       0.11      49.69     291.52     341.21        0.34     0.01   0.678
  S186                     503.29       0.00       0.00       0.11      49.23     188.25     237.49        1.59     0.06   0.472
  S187                     503.29       0.00       0.00       0.12      24.81     304.67     304.67        2.10     0.07   0.605
  S188                     503.29       0.00       0.00       0.11      49.53     249.85     299.38        0.63     0.03   0.595
  S189                     503.29       0.00       0.00       0.11      49.32     204.38     253.70        1.17     0.05   0.504
  S192                     503.29       0.00       0.00       0.11      49.57     260.78     310.35        0.53     0.02   0.617
  S193                     503.29       0.00       0.00       0.11      49.67     284.73     334.39        0.37     0.02   0.664
  S194                     503.29       0.00       0.00       0.02     381.62      87.57     469.19        0.75     0.06   0.932
  S195                     503.29       0.00       0.00       0.02     381.62      87.57     469.19        0.75     0.06   0.932
  S196                     503.29       0.00       0.00       0.02     384.00      89.24     473.24        0.52     0.05   0.940
  S197                     503.29       0.00       0.00       0.11      49.80     322.53     372.33        0.19     0.01   0.740
  S198                     503.29       0.00       0.00       0.11      49.84     333.64     383.48        0.15     0.01   0.762
  S199                     503.29       0.00       0.00       0.11      49.80     322.53     372.33        0.19     0.01   0.740
  S200                     503.29       0.00       0.00       0.11      49.77     313.72     363.49        0.22     0.01   0.722
  S201                     503.29       0.00       0.00       0.11      49.80     322.53     372.33        0.19     0.01   0.740
  S202                     503.29       0.00       0.00       0.12      24.97     388.02     388.02        0.35     0.02   0.771
  S203                     503.29       0.00       0.00       0.02     390.13      93.28     483.41        0.15     0.02   0.960
  S204                     503.29       0.00       0.00       0.02     387.13      91.36     478.49        0.29     0.03   0.951
  S205                     503.29       0.00       0.00       0.02     389.14      92.66     481.79        0.19     0.02   0.957
  S206                     503.29       0.00       0.00       0.06     243.77     206.69     450.46        0.36     0.03   0.895
  S207                     503.29       0.00       0.00       0.12      24.94     373.77     373.77        0.52     0.02   0.743
  S208                     503.29       0.00       0.00       0.06     242.19     201.44     443.64        0.67     0.06   0.881
  S209                     503.29       0.00       0.00       0.06     243.54     205.92     449.46        0.40     0.04   0.893
  S210                     503.29       0.00       0.00       0.06     244.79     209.84     454.63        0.23     0.02   0.903
  S211                     503.29       0.00       0.00       0.12      10.00     243.00     253.00        0.81     0.02   0.503
  S212                     503.29       0.00       0.00       0.12      10.01     281.88     291.89        0.50     0.01   0.580
  S213                     503.29       0.00       0.00       0.12      10.01     277.69     287.70        0.52     0.01   0.572
  S214                     503.29       0.00       0.00       0.12      10.03     333.76     343.79        0.24     0.01   0.683
  S215                     503.29       0.00       0.00       0.12      10.03     350.41     350.41        0.21     0.01   0.696
  S216                     503.29       0.00       0.00       0.12      10.03     352.02     362.05        0.18     0.01   0.719
  S217                     503.29       0.00       0.00       0.02     387.13      91.36     478.49        0.29     0.03   0.951
  S218                     503.29       0.00       0.00       0.02     385.23      90.09     475.31        0.43     0.04   0.944
  S219                     503.29       0.00       0.00       0.12      24.93     369.95     369.95        0.59     0.03   0.735
  S220                     503.29       0.00       0.00       0.12      25.02     407.02     407.02        0.16     0.01   0.809
  S221                     503.29       0.00       0.00       0.02     387.13      91.36     478.49        0.29     0.03   0.951
  S222                     503.29       0.00       0.00       0.02     387.13      91.36     478.49        0.29     0.03   0.951
  S223                     503.29       0.00       0.00       0.02     387.13      91.36     478.49        0.29     0.03   0.951
  S224                     503.29       0.00       0.00       0.02     394.13      88.55     482.69        0.05     0.01   0.959
  S225                     503.29       0.00       0.00       0.02     392.03      88.01     480.04        0.10     0.01   0.954
  S226                     503.29       0.00       0.00       0.02     394.13      88.55     482.69        0.05     0.01   0.959
  S227                     503.29       0.00       0.00       0.02     390.53      87.63     478.16        0.14     0.02   0.950
  S228                     503.29       0.00       0.00       0.02     394.13      88.55     482.69        0.05     0.01   0.959
  S229                     503.29       0.00       0.00       0.02     390.53      87.63     478.16        0.14     0.02   0.950
  S230                     503.29       0.00       0.00       0.02     394.13      88.55     482.69        0.05     0.01   0.959
  S231                     503.29       0.00       0.00       0.10      99.68     350.28     449.97        0.04     0.00   0.894
  S232                     503.29       0.00       0.00       0.10      99.68     350.28     449.97        0.04     0.00   0.894
  S233                     503.29       0.00       0.00       0.02     392.03      88.01     480.04        0.10     0.01   0.954
  S234                     503.29       0.00       0.00       0.02     394.13      88.55     482.69        0.05     0.01   0.959
  S235                     503.29       0.00       0.00       0.02     390.53      87.63     478.16        0.14     0.02   0.950
  S236                     503.29       0.00       0.00       0.02     394.13      88.55     482.69        0.05     0.01   0.959
  S237                     503.29       0.00       0.00       0.02     387.13      91.36     478.49        0.29     0.03   0.951
  S238                     503.29       0.00       0.00       0.02     393.73      95.37     489.10        0.05     0.01   0.972
  S239                     503.29       0.00       0.00       0.02     390.13      93.28     483.41        0.15     0.02   0.960
  S240                     503.29       0.00       0.00       0.02     392.03      88.01     480.04        0.10     0.01   0.954
  S241                     503.29       0.00       0.00       0.02     388.03      91.95     479.98        0.24     0.02   0.954
  S242                     503.29       0.00       0.00       0.06     244.79     209.84     454.63        0.23     0.02   0.903
  S243                     503.29       0.00       0.00       0.02     387.13      91.36     478.49        0.29     0.03   0.951
  S244                     503.29       0.00       0.00       0.02     381.62      87.57     469.19        0.75     0.06   0.932
  S245                     503.29       0.00       0.00       0.02     380.61      86.86     467.48        0.84     0.07   0.929
  S246                     503.29       0.00       0.00       0.02     383.00      88.54     471.54        0.61     0.05   0.937
  S247                     503.29       0.00       0.00       0.02     384.76      89.77     474.53        0.47     0.04   0.943
  S248                     503.29       0.00       0.00       0.02     383.00      88.54     471.54        0.61     0.05   0.937
  S249                     503.29       0.00       0.00       0.02     384.00      89.24     473.24        0.52     0.05   0.940
  S250                     503.29       0.00       0.00       0.02     385.23      90.09     475.31        0.43     0.04   0.944
  S251                     503.29       0.00       0.00       0.02     385.76      90.45     476.21        0.38     0.04   0.946
  S252                     503.29       0.00       0.00       0.02     384.00      89.24     473.24        0.52     0.05   0.940
  S253                     503.29       0.00       0.00       0.02     387.13      91.36     478.49        0.29     0.03   0.951
  S254                     503.29       0.00       0.00       0.02     390.13      93.28     483.41        0.15     0.02   0.960
  S255                     503.29       0.00       0.00       0.02     385.76      90.45     476.21        0.38     0.04   0.946
  S256                     503.29       0.00       0.00       0.02     378.15      85.12     463.27        1.16     0.09   0.920
  S257                     503.29       0.00       0.00       0.02     389.14      92.66     481.79        0.19     0.02   0.957
  S258                     503.29       0.00       0.00       0.02     390.13      93.28     483.41        0.15     0.02   0.960
  S259                     503.29       0.00       0.00       0.02     389.14      92.66     481.79        0.19     0.02   0.957
  S260                     503.29       0.00       0.00       0.02     385.76      90.45     476.21        0.38     0.04   0.946
  S261                     503.29       0.00       0.00       0.12      24.92     364.43     364.43        0.69     0.03   0.724
  S262                     503.29       0.00       0.00       0.12      24.97     388.02     388.02        0.35     0.02   0.771
  S264                     503.29       0.00       0.00       0.12       9.99     233.04     243.04        0.90     0.02   0.483
  S265                     503.29       0.00       0.00       0.12       9.99     223.89     233.88        1.01     0.03   0.465
  S266                     503.29       0.00       0.00       0.02     385.23      90.09     475.31        0.43     0.04   0.944
  S267                     503.29       0.00       0.00       0.02     390.13      93.28     483.41        0.15     0.02   0.960
  S268                     503.29       0.00       0.00       0.12      10.02     316.60     326.62        0.33     0.01   0.649
  S269                     503.29       0.00       0.00       0.12      10.03     364.82     374.85        0.15     0.01   0.745
  S270                     503.29       0.00       0.00       0.12      10.02     321.39     331.42        0.30     0.01   0.659
  S271                     503.29       0.00       0.00       0.12      10.03     364.82     374.85        0.15     0.01   0.745
  S272                     503.29       0.00       0.00       0.12      10.03     352.02     362.05        0.18     0.01   0.719
  S273                     503.29       0.00       0.00       0.12      10.03     341.92     351.95        0.21     0.01   0.699
  S274                     503.29       0.00       0.00       0.12      10.03     341.92     351.95        0.21     0.01   0.699
  S275                     503.29       0.00       0.00       0.12      10.02     327.03     337.06        0.27     0.01   0.670
  S276                     503.29       0.00       0.00       0.12      10.03     364.82     374.85        0.15     0.01   0.745
  S277                     503.29       0.00       0.00       0.12      10.03     364.82     374.85        0.15     0.01   0.745
  
  
  ******************
  Node Depth Summary
  ******************
  
  ---------------------------------------------------------------------------------
                                 Average  Maximum  Maximum  Time of Max    Reported
                                   Depth    Depth      HGL   Occurrence   Max Depth
  Node                 Type       Meters   Meters   Meters  days hr:min      Meters
  ---------------------------------------------------------------------------------
  J4                   JUNCTION     0.00     0.00     2.90     0  00:00        0.00
  J5                   JUNCTION     0.00     0.00     2.61     0  00:00        0.00
  J6                   JUNCTION     0.00     0.00     2.55     0  00:00        0.00
  J7                   JUNCTION     0.00     0.00     2.90     0  00:00        0.00
  J8                   JUNCTION     0.00     0.00     2.55     0  00:00        0.00
  J9                   JUNCTION     0.00     0.00     2.90     0  00:00        0.00
  J10                  JUNCTION     0.02     0.12     2.76     0  12:05        0.12
  J11                  JUNCTION     0.03     0.12     2.67     0  12:06        0.12
  J12                  JUNCTION     0.00     0.00     2.90     0  00:00        0.00
  J13                  JUNCTION     0.00     0.00     2.47     0  00:00        0.00
  J14                  JUNCTION     0.00     0.00     2.55     0  00:00        0.00
  J15                  JUNCTION     0.00     0.00     2.55     0  00:00        0.00
  J16                  JUNCTION     0.10     0.10     2.20     0  00:00        0.10
  J17                  JUNCTION     0.00     0.00     2.00     0  00:00        0.00
  J18                  JUNCTION     0.00     0.00     3.03     0  00:00        0.00
  J19                  JUNCTION     0.00     0.00     2.91     0  00:00        0.00
  J20                  JUNCTION     0.00     0.00     2.90     0  00:00        0.00
  J21                  JUNCTION     0.00     0.00     3.03     0  00:00        0.00
  J22                  JUNCTION     0.00     0.00     1.56     0  00:00        0.00
  J23                  JUNCTION     0.03     0.11     1.55     0  12:08        0.10
  J24                  JUNCTION     0.03     0.11     1.67     0  12:07        0.10
  J26                  JUNCTION     0.03     0.11     2.26     0  12:06        0.11
  J27                  JUNCTION     0.00     0.00     3.10     0  00:00        0.00
  J28                  JUNCTION     0.00     0.00     3.00     0  00:00        0.00
  J29                  JUNCTION     0.02     0.07     2.17     0  12:05        0.07
  J30                  JUNCTION     0.07     0.19     2.17     0  12:06        0.18
  J31                  JUNCTION     0.21     0.36     2.30     0  11:33        0.36
  J32                  JUNCTION     0.21     0.24     1.98     0  12:05        0.24
  J33                  JUNCTION     0.28     0.35     2.03     0  12:06        0.35
  J34                  JUNCTION     0.02     0.06     2.16     0  12:05        0.06
  J35                  JUNCTION     0.05     0.20     2.30     0  11:32        0.20
  J36                  JUNCTION     0.00     0.00     2.10     0  00:00        0.00
  J38                  JUNCTION     0.01     0.04     2.08     0  12:05        0.04
  J40                  JUNCTION     0.00     0.00     2.10     0  00:00        0.00
  J41                  JUNCTION     0.02     0.06     2.11     0  12:10        0.06
  J42                  JUNCTION     0.03     0.13     2.15     0  12:05        0.12
  J43                  JUNCTION     0.03     0.13     2.13     0  12:05        0.12
  J50                  JUNCTION     0.38     0.71     1.83     0  12:07        0.68
  J51                  JUNCTION     0.20     0.69     1.63     0  12:07        0.66
  J52                  JUNCTION     0.18     0.63     1.49     0  12:07        0.61
  J53                  JUNCTION     0.21     0.74     1.29     0  12:07        0.71
  J54                  JUNCTION     0.22     1.19     1.72     0  12:07        1.15
  J55                  JUNCTION     0.07     0.30     1.34     0  12:06        0.29
  J56                  JUNCTION     0.25     1.19     1.71     0  12:07        1.15
  J57                  JUNCTION     0.17     0.57     1.64     0  12:06        0.55
  J58                  JUNCTION     0.74     1.05     2.10     0  12:06        1.04
  J59                  JUNCTION     0.98     0.98     2.01     0  00:00        0.98
  J60                  JUNCTION     1.01     1.01     2.00     0  00:00        1.01
  J61                  JUNCTION     0.00     0.00     2.10     0  00:00        0.00
  J62                  JUNCTION     0.00     0.00     2.09     0  00:00        0.00
  J63                  JUNCTION     0.00     0.00     2.10     0  00:00        0.00
  J64                  JUNCTION     0.00     0.00     1.98     0  00:00        0.00
  J65                  JUNCTION     0.61     1.00     2.28     0  11:59        1.00
  J66                  JUNCTION     0.00     0.00     2.10     0  00:00        0.00
  J67                  JUNCTION     0.00     0.00     2.06     0  00:00        0.00
  J68                  JUNCTION     0.80     0.80     2.04     0  00:00        0.80
  J69                  JUNCTION     0.00     0.00     2.10     0  00:00        0.00
  J70                  JUNCTION     0.00     0.00     2.00     0  00:00        0.00
  J71                  JUNCTION     0.62     1.00     2.30     0  11:58        1.00
  J72                  JUNCTION     0.00     0.00     2.08     0  00:00        0.00
  J73                  JUNCTION     0.00     0.00     2.06     0  00:00        0.00
  J74                  JUNCTION     0.00     0.00     2.02     0  00:00        0.00
  J75                  JUNCTION     0.00     0.00     1.98     0  00:00        0.00
  J76                  JUNCTION     0.00     0.00     1.95     0  00:00        0.00
  J77                  JUNCTION     0.00     0.00     1.87     0  00:00        0.00
  J78                  JUNCTION     0.48     1.00     2.32     0  12:04        0.97
  J79                  JUNCTION     0.00     0.00     2.10     0  00:00        0.00
  J80                  JUNCTION     0.00     0.00     2.03     0  00:00        0.00
  J81                  JUNCTION     0.57     0.77     2.11     0  12:06        0.73
  J82                  JUNCTION     0.00     0.00     2.10     0  00:00        0.00
  J83                  JUNCTION     0.00     0.00     2.02     0  00:00        0.00
  J84                  JUNCTION     0.00     0.00     1.90     0  00:00        0.00
  J85                  JUNCTION     0.00     0.00     1.82     0  00:00        0.00
  J86                  JUNCTION     0.29     0.55     1.96     0  12:05        0.52
  J87                  JUNCTION     0.00     0.00     2.10     0  00:00        0.00
  J88                  JUNCTION     0.00     0.00     1.94     0  00:00        0.00
  J89                  JUNCTION     0.00     0.00     1.82     0  00:00        0.00
  J90                  JUNCTION     0.00     0.00     1.67     0  00:00        0.00
  J91                  JUNCTION     0.13     0.42     1.87     0  12:05        0.40
  J92                  JUNCTION     0.03     0.16     2.26     0  12:05        0.15
  J93                  JUNCTION     0.04     0.23     2.25     0  12:05        0.22
  J94                  JUNCTION     0.05     0.30     2.24     0  12:05        0.29
  J95                  JUNCTION     0.05     0.34     2.23     0  12:05        0.33
  J96                  JUNCTION     0.07     0.46     2.24     0  12:05        0.45
  J97                  JUNCTION     0.07     0.46     2.21     0  12:06        0.45
  J98                  JUNCTION     0.00     0.00     2.10     0  00:00        0.00
  J99                  JUNCTION     0.00     0.00     2.10     0  00:00        0.00
  J101                 JUNCTION     0.02     0.10     2.10     0  12:05        0.09
  J103                 JUNCTION     0.03     0.15     2.09     0  12:05        0.15
  J104                 JUNCTION     0.01     0.06     2.06     0  12:05        0.06
  J105                 JUNCTION     0.04     0.21     2.11     0  12:05        0.20
  J106                 JUNCTION     0.03     0.15     2.25     0  12:05        0.15
  J107                 JUNCTION     0.04     0.26     2.26     0  12:05        0.25
  J108                 JUNCTION     0.92     1.20     2.30     0  11:40        1.20
  J109                 JUNCTION     0.66     1.20     2.32     0  11:40        1.20
  J111                 JUNCTION     0.19     1.14     2.33     0  12:05        1.14
  J112                 JUNCTION     0.22     1.11     2.32     0  11:50        1.11
  J113                 JUNCTION     0.00     0.00     2.10     0  00:00        0.00
  J120                 JUNCTION     0.07     0.43     1.98     0  12:05        0.41
  J122                 JUNCTION     0.58     0.69     1.97     0  12:06        0.69
  J123                 JUNCTION     0.03     0.14     2.09     0  12:05        0.13
  J124                 JUNCTION     0.03     0.16     2.14     0  12:06        0.16
  J125                 JUNCTION     0.03     0.16     2.16     0  12:05        0.16
  J126                 JUNCTION     0.01     0.05     2.15     0  12:05        0.05
  J127                 JUNCTION     0.00     0.00     2.10     0  00:00        0.00
  J132                 JUNCTION     0.00     0.00     1.85     0  00:00        0.00
  J133                 JUNCTION     0.07     0.41     2.14     0  12:05        0.40
  J135                 JUNCTION     0.08     0.50     2.05     0  12:05        0.49
  J137                 JUNCTION     0.37     0.52     2.02     0  12:05        0.51
  J138                 JUNCTION     0.02     0.13     2.08     0  12:05        0.13
  J139                 JUNCTION     0.03     0.16     2.14     0  12:06        0.16
  J140                 JUNCTION     0.03     0.16     2.16     0  12:05        0.16
  J141                 JUNCTION     0.01     0.05     2.15     0  12:05        0.05
  J142                 JUNCTION     0.01     0.08     2.16     0  12:05        0.08
  J143                 JUNCTION     0.02     0.11     2.11     0  12:05        0.10
  J144                 JUNCTION     0.02     0.11     2.18     0  12:05        0.10
  J145                 JUNCTION     0.01     0.08     2.16     0  12:05        0.08
  J146                 JUNCTION     0.01     0.08     2.08     0  12:05        0.08
  J147                 JUNCTION     0.01     0.08     2.16     0  12:05        0.08
  J148                 JUNCTION     0.03     0.14     1.92     0  12:05        0.14
  J149                 JUNCTION     0.00     0.00     2.10     0  00:00        0.00
  J154                 JUNCTION     0.00     0.00     1.85     0  00:00        0.00
  J155                 JUNCTION     0.07     0.39     2.12     0  12:05        0.38
  J157                 JUNCTION     0.07     0.43     1.98     0  12:05        0.41
  J159                 JUNCTION     0.60     1.02     2.30     0  11:59        1.02
  J160                 JUNCTION     0.02     0.13     2.08     0  12:05        0.13
  J161                 JUNCTION     0.03     0.14     2.12     0  12:06        0.14
  J162                 JUNCTION     0.03     0.14     2.14     0  12:05        0.14
  J163                 JUNCTION     0.01     0.05     2.15     0  12:05        0.05
  J164                 JUNCTION     0.03     0.14     1.92     0  12:05        0.14
  J165                 JUNCTION     0.01     0.08     2.16     0  12:05        0.08
  J166                 JUNCTION     0.02     0.11     2.11     0  12:05        0.10
  J167                 JUNCTION     0.02     0.11     2.18     0  12:05        0.10
  J168                 JUNCTION     0.00     0.00     2.10     0  00:00        0.00
  J173                 JUNCTION     0.00     0.00     1.85     0  00:00        0.00
  J174                 JUNCTION     0.03     0.16     1.94     0  12:05        0.15
  J175                 JUNCTION     0.07     0.39     2.12     0  12:05        0.38
  J177                 JUNCTION     0.07     0.43     1.98     0  12:05        0.41
  J179                 JUNCTION     0.61     0.75     2.09     0  12:06        0.75
  J180                 JUNCTION     0.03     0.17     2.12     0  12:05        0.17
  J181                 JUNCTION     0.02     0.13     2.11     0  12:06        0.13
  J182                 JUNCTION     0.02     0.13     2.13     0  12:05        0.13
  J183                 JUNCTION     0.01     0.03     2.13     0  12:05        0.03
  J184                 JUNCTION     0.00     0.00     1.90     0  00:00        0.00
  J187                 JUNCTION     0.02     0.10     1.79     0  12:05        0.10
  J188                 JUNCTION     0.54     0.54     1.70     0  00:00        0.54
  J189                 JUNCTION     0.52     0.52     1.73     0  00:00        0.52
  J190                 JUNCTION     0.27     0.90     2.37     0  12:02        0.89
  J191                 JUNCTION     0.14     0.90     2.29     0  12:02        0.88
  J192                 JUNCTION     0.07     0.32     1.33     0  12:06        0.31
  J193                 JUNCTION     0.10     0.47     1.35     0  12:02        0.46
  J197                 JUNCTION     0.13     0.44     2.17     0  12:10        0.44
  J198                 JUNCTION     0.28     0.74     2.38     0  11:52        0.74
  J199                 JUNCTION     0.28     0.74     2.30     0  11:52        0.74
  J200                 JUNCTION     0.17     0.50     1.97     0  12:09        0.49
  J201                 JUNCTION     0.21     0.62     2.05     0  12:07        0.59
  J202                 JUNCTION     0.03     0.11     2.01     0  12:05        0.11
  J203                 JUNCTION     0.04     0.14     2.04     0  12:05        0.14
  J204                 JUNCTION     0.03     0.12     2.02     0  12:05        0.12
  J205                 JUNCTION     0.02     0.08     1.98     0  12:05        0.08
  J206                 JUNCTION     0.00     0.00     2.00     0  00:00        0.00
  J207                 JUNCTION     0.00     0.00     2.10     0  00:00        0.00
  J211                 JUNCTION     0.03     0.13     1.98     0  12:05        0.13
  J212                 JUNCTION     0.06     0.27     1.98     0  12:05        0.26
  J217                 JUNCTION     0.41     0.98     2.30     0  11:40        0.98
  J218                 JUNCTION     0.48     1.05     2.30     0  11:41        1.05
  J219                 JUNCTION     0.00     0.00     1.98     0  00:00        0.00
  J220                 JUNCTION     0.00     0.00     1.96     0  00:00        0.00
  J221                 JUNCTION     0.05     0.13     1.78     0  12:05        0.13
  J224                 JUNCTION     0.00     0.00     2.00     0  00:00        0.00
  J229                 JUNCTION     0.03     0.15     1.95     0  12:05        0.15
  J235                 JUNCTION     0.36     0.80     2.30     0  11:49        0.80
  J237                 JUNCTION     0.00     0.00     2.00     0  00:00        0.00
  J238                 JUNCTION     0.00     0.00     2.00     0  00:00        0.00
  J239                 JUNCTION     0.03     0.10     2.00     0  12:05        0.10
  J240                 JUNCTION     0.01     0.07     2.07     0  12:05        0.07
  J241                 JUNCTION     0.08     0.40     2.02     0  12:05        0.39
  J242                 JUNCTION     0.00     0.00     2.00     0  00:00        0.00
  J249                 JUNCTION     0.13     0.20     1.90     0  12:05        0.20
  J250                 JUNCTION     0.04     0.22     1.82     0  12:05        0.22
  J251                 JUNCTION     0.13     0.66     2.14     0  12:05        0.65
  J254                 JUNCTION     0.39     0.66     2.09     0  12:06        0.65
  J258                 JUNCTION     0.00     0.00     2.00     0  00:00        0.00
  J259                 JUNCTION     0.00     0.00     2.00     0  00:00        0.00
  J260                 JUNCTION     0.03     0.12     2.02     0  12:05        0.12
  J261                 JUNCTION     0.01     0.06     2.06     0  12:05        0.06
  J262                 JUNCTION     0.00     0.00     2.00     0  00:00        0.00
  J263                 JUNCTION     0.16     0.82     2.22     0  12:03        0.81
  J267                 JUNCTION     0.09     0.40     1.92     0  12:03        0.38
  J268                 JUNCTION     0.02     0.11     1.86     0  12:05        0.11
  J271                 JUNCTION     0.02     0.11     2.00     0  12:05        0.10
  J272                 JUNCTION     0.01     0.05     2.05     0  12:05        0.04
  J273                 JUNCTION     0.00     0.00     2.10     0  00:00        0.00
  J274                 JUNCTION     0.00     0.00     1.90     0  00:00        0.00
  J275                 JUNCTION     0.00     0.00     2.10     0  00:00        0.00
  J276                 JUNCTION     0.02     0.08     1.96     0  12:05        0.08
  J278                 JUNCTION     0.02     0.11     1.91     0  12:05        0.10
  J283                 JUNCTION     0.01     0.05     2.05     0  12:05        0.05
  J284                 JUNCTION     0.09     0.75     2.30     0  12:00        0.40
  J286                 JUNCTION     0.16     0.53     1.23     0  12:08        0.50
  J290                 JUNCTION     0.08     0.19     1.86     0  12:07        0.18
  J291                 JUNCTION     0.07     0.13     1.98     0  13:07        0.13
  J292                 JUNCTION     0.03     0.07     2.17     0  13:05        0.07
  J293                 JUNCTION     0.08     0.16     2.21     0  13:05        0.16
  J294                 JUNCTION     0.08     0.16     2.11     0  13:07        0.16
  J295                 JUNCTION     0.09     0.19     2.09     0  13:06        0.19
  J296                 JUNCTION     0.10     0.19     2.07     0  13:07        0.19
  J297                 JUNCTION     0.00     0.00     1.90     0  00:00        0.00
  J298                 JUNCTION     0.00     0.00     2.00     0  00:00        0.00
  J299                 JUNCTION     0.02     0.03     1.93     0  13:05        0.03
  J301                 JUNCTION     0.03     0.06     1.81     0  13:05        0.06
  J302                 JUNCTION     0.44     1.05     2.40     0  12:07        1.05
  J303                 JUNCTION     0.04     0.14     1.79     0  12:06        0.14
  J305                 JUNCTION     0.51     1.05     2.30     0  12:07        1.05
  J307                 JUNCTION     0.03     0.11     1.96     0  12:05        0.11
  J308                 JUNCTION     0.04     0.14     2.09     0  12:05        0.14
  J309                 JUNCTION     0.11     0.36     2.16     0  12:16        0.36
  J310                 JUNCTION     0.11     0.36     2.09     0  12:16        0.36
  J311                 JUNCTION     0.02     0.08     1.98     0  12:05        0.07
  J312                 JUNCTION     0.02     0.10     1.55     0  12:05        0.10
  J313                 JUNCTION     0.37     0.45     1.50     0  12:06        0.45
  J314                 JUNCTION     0.04     0.13     2.03     0  12:05        0.13
  J315                 JUNCTION     0.55     0.66     1.69     0  12:08        0.65
  J316                 JUNCTION     0.03     0.14     2.04     0  12:05        0.13
  J317                 JUNCTION     0.04     0.19     1.65     0  12:06        0.18
  J318                 JUNCTION     0.00     0.00     2.77     0  00:00        0.00
  J319                 JUNCTION     0.00     0.00     2.76     0  00:00        0.00
  J320                 JUNCTION     0.00     0.00     2.76     0  00:00        0.00
  J321                 JUNCTION     0.00     0.00     2.73     0  00:00        0.00
  J322                 JUNCTION     0.00     0.00     2.73     0  00:00        0.00
  J324                 JUNCTION     0.09     0.20     2.30     0  11:28        0.20
  J325                 JUNCTION     0.11     0.20     2.26     0  11:18        0.20
  J326                 JUNCTION     0.09     0.20     2.23     0  11:33        0.20
  J327                 JUNCTION     0.03     0.10     2.20     0  12:05        0.10
  J329                 JUNCTION     0.07     0.17     2.16     0  12:06        0.16
  J330                 JUNCTION     0.01     0.06     2.16     0  12:05        0.06
  J331                 JUNCTION     0.01     0.04     3.99     0  12:05        0.04
  J332                 JUNCTION     0.02     0.06     3.65     0  12:05        0.05
  J333                 JUNCTION     0.07     0.17     3.40     0  12:05        0.16
  J334                 JUNCTION     0.08     0.19     3.33     0  12:06        0.18
  J335                 JUNCTION     0.09     0.20     3.25     0  12:06        0.19
  J336                 JUNCTION     0.09     0.22     3.18     0  12:06        0.21
  J337                 JUNCTION     0.14     0.33     3.20     0  12:06        0.32
  J338                 JUNCTION     0.14     0.33     3.16     0  12:07        0.32
  J339                 JUNCTION     0.13     0.32     3.14     0  12:07        0.30
  J340                 JUNCTION     0.11     0.28     2.85     0  12:07        0.27
  J341                 JUNCTION     0.11     0.28     2.78     0  12:07        0.27
  J342                 JUNCTION     0.00     0.00     2.90     0  00:00        0.00
  J349                 JUNCTION     0.00     0.00     2.10     0  00:00        0.00
  J351                 JUNCTION     0.00     0.00     2.10     0  00:00        0.00
  J352                 JUNCTION     0.17     0.62     2.22     0  12:11        0.61
  J353                 JUNCTION     0.00     0.00     1.70     0  00:00        0.00
  J354                 JUNCTION     0.06     0.22     2.07     0  12:09        0.22
  J355                 JUNCTION     0.07     0.25     2.05     0  12:08        0.25
  J356                 JUNCTION     0.06     0.22     2.12     0  12:05        0.22
  J357                 JUNCTION     0.10     0.26     2.18     0  12:07        0.25
  J358                 JUNCTION     0.23     0.71     1.98     0  12:07        0.68
  J359                 JUNCTION     0.17     0.58     1.34     0  12:07        0.56
  J360                 JUNCTION     0.21     0.74     1.40     0  12:07        0.71
  J362                 JUNCTION     0.00     0.00     2.90     0  00:00        0.00
  J363                 JUNCTION     0.06     0.31     2.04     0  12:05        0.30
  J364                 JUNCTION     1.02     1.11     2.00     0  12:05        1.11
  J365                 JUNCTION     0.00     0.00     1.80     0  00:00        0.00
  J366                 JUNCTION     0.00     0.00     1.80     0  00:00        0.00
  J367                 JUNCTION     0.03     0.10     1.30     0  12:09        0.10
  J368                 JUNCTION     0.20     0.69     1.65     0  12:06        0.66
  J369                 JUNCTION     0.00     0.00     1.80     0  00:00        0.00
  J370                 JUNCTION     0.00     0.00     1.80     0  00:00        0.00
  J371                 JUNCTION     0.00     0.00     1.83     0  00:00        0.00
  J372                 JUNCTION     0.00     0.00     1.76     0  00:00        0.00
  J373                 JUNCTION     0.00     0.00     1.73     0  00:00        0.00
  J374                 JUNCTION     0.00     0.00     1.68     0  00:00        0.00
  J375                 JUNCTION     0.02     0.04     1.66     0  13:05        0.04
  J376                 JUNCTION     0.03     0.06     1.52     0  13:05        0.06
  J377                 JUNCTION     0.03     0.06     1.50     0  13:06        0.06
  J378                 JUNCTION     0.03     0.06     1.47     0  13:06        0.06
  J379                 JUNCTION     0.02     0.06     1.44     0  13:06        0.06
  J380                 JUNCTION     0.03     0.06     1.43     0  13:06        0.06
  J381                 JUNCTION     0.03     0.06     1.42     0  13:06        0.06
  J382                 JUNCTION     0.03     0.08     1.42     0  13:05        0.08
  J383                 JUNCTION     0.71     0.75     1.41     0  13:06        0.75
  J384                 JUNCTION     0.00     0.00     1.97     0  00:00        0.00
  J385                 JUNCTION     0.01     0.03     1.98     0  12:05        0.03
  J386                 JUNCTION     0.01     0.03     1.97     0  12:05        0.03
  J387                 JUNCTION     0.01     0.03     1.96     0  12:06        0.03
  J388                 JUNCTION     0.01     0.03     1.95     0  12:06        0.03
  J389                 JUNCTION     0.01     0.03     1.90     0  12:06        0.03
  J390                 JUNCTION     0.02     0.03     1.89     0  12:06        0.03
  J391                 JUNCTION     0.02     0.03     1.88     0  12:06        0.03
  J392                 JUNCTION     0.07     0.08     1.92     0  12:06        0.08
  J393                 JUNCTION     0.01     0.03     1.98     0  12:05        0.03
  J394                 JUNCTION     0.02     0.04     1.99     0  13:05        0.04
  J395                 JUNCTION     0.08     0.11     1.93     0  12:06        0.11
  J396                 JUNCTION     0.03     0.08     1.88     0  12:06        0.08
  J397                 JUNCTION     1.23     1.25     1.89     0  12:05        1.25
  J398                 JUNCTION     0.01     0.03     1.92     0  12:05        0.03
  J399                 JUNCTION     0.00     0.02     1.94     0  12:05        0.02
  J400                 JUNCTION     0.00     0.00     1.94     0  00:00        0.00
  J401                 JUNCTION     0.17     0.56     1.23     0  12:08        0.54
  J402                 JUNCTION     0.17     0.56     1.23     0  12:08        0.54
  J403                 JUNCTION     0.17     0.56     1.24     0  12:08        0.54
  J404                 JUNCTION     0.16     0.53     1.22     0  12:08        0.51
  J405                 JUNCTION     0.26     0.87     1.50     0  12:08        0.84
  J406                 JUNCTION     0.19     1.14     2.29     0  12:05        1.14
  OutSR                OUTFALL      0.00     0.00     0.00     0  00:00        0.00
  OutSL                OUTFALL      0.00     0.00     0.00     0  00:00        0.00
  1                    STORAGE      1.66     2.81     2.60     0  11:39        2.82
  2                    STORAGE      2.08     3.50     2.44     0  11:53        3.50
  
  
  *******************
  Node Inflow Summary
  *******************
  
  -------------------------------------------------------------------------------------------------
                                  Maximum  Maximum                  Lateral       Total        Flow
                                  Lateral    Total  Time of Max      Inflow      Inflow     Balance
                                   Inflow   Inflow   Occurrence      Volume      Volume       Error
  Node                 Type           CMS      CMS  days hr:min    10^6 ltr    10^6 ltr     Percent
  -------------------------------------------------------------------------------------------------
  J4                   JUNCTION     0.000    0.000     0  00:00           0           0       0.000 ltr
  J5                   JUNCTION     0.000    0.000     0  00:00           0           0       0.000 ltr
  J6                   JUNCTION     0.000    0.000     0  00:00           0           0       0.000 ltr
  J7                   JUNCTION     0.000    0.000     0  00:00           0           0       0.000 ltr
  J8                   JUNCTION     0.000    0.000     0  00:00           0           0       0.000 ltr
  J9                   JUNCTION     0.000    0.000     0  00:00           0           0       0.000 ltr
  J10                  JUNCTION     0.015    0.015     0  12:05       0.137       0.137       0.000
  J11                  JUNCTION     0.000    0.015     0  12:06           0       0.137       0.000
  J12                  JUNCTION     0.000    0.000     0  00:00           0           0       0.000 ltr
  J13                  JUNCTION     0.000    0.000     0  00:00           0           0       0.000 ltr
  J14                  JUNCTION     0.000    0.000     0  00:00           0           0       0.000 ltr
  J15                  JUNCTION     0.000    0.000     0  00:00           0           0       0.000 ltr
  J16                  JUNCTION     0.000    0.000     0  00:00           0           0       0.000 ltr
  J17                  JUNCTION     0.000    0.000     0  00:00           0           0       0.000 ltr
  J18                  JUNCTION     0.000    0.000     0  00:00           0           0       0.000 ltr
  J19                  JUNCTION     0.000    0.000     0  00:00           0           0       0.000 ltr
  J20                  JUNCTION     0.000    0.000     0  00:00           0           0       0.000 ltr
  J21                  JUNCTION     0.000    0.000     0  00:00           0           0       0.000 ltr
  J22                  JUNCTION     0.000    0.000     0  00:00           0           0       0.000 ltr
  J23                  JUNCTION     0.000    0.015     0  12:08           0       0.137       0.000
  J24                  JUNCTION     0.000    0.015     0  12:07           0       0.137       0.000
  J26                  JUNCTION     0.000    0.015     0  12:06           0       0.137       0.000
  J27                  JUNCTION     0.000    0.000     0  00:00           0           0       0.000 ltr
  J28                  JUNCTION     0.000    0.000     0  00:00           0           0       0.000 ltr
  J29                  JUNCTION     0.025    0.025     0  12:05       0.525       0.525       0.000
  J30                  JUNCTION     0.010    0.073     0  12:06       0.218        1.72       0.000
  J31                  JUNCTION     0.000    0.083     0  12:06           0        1.87       0.000
  J32                  JUNCTION     0.000    0.102     0  12:06           0        2.06       0.000
  J33                  JUNCTION     0.028    0.189     0  12:06       0.287        3.23       0.000
  J34                  JUNCTION     0.019    0.019     0  12:05       0.349       0.349       0.000
  J35                  JUNCTION     0.015    0.015     0  12:05       0.145       0.145      -0.000
  J36                  JUNCTION     0.000    0.000     0  00:00           0           0       0.000 ltr
  J38                  JUNCTION     0.020    0.020     0  12:05       0.193       0.193       0.000
  J40                  JUNCTION     0.000    0.000     0  00:00           0           0       0.000 ltr
  J41                  JUNCTION     0.024    0.024     0  12:10       0.523       0.523       0.000
  J42                  JUNCTION     0.034    0.059     0  12:05        0.36       0.883       0.000
  J43                  JUNCTION     0.000    0.059     0  12:05           0       0.882       0.000
  J50                  JUNCTION     0.032    0.883     0  12:07       0.334        18.6       0.000
  J51                  JUNCTION     0.019    1.535     0  12:06       0.183        27.2       0.000
  J52                  JUNCTION     0.015    1.549     0  12:07       0.137        27.3       0.000
  J53                  JUNCTION     0.023    1.664     0  12:07       0.227        28.6       0.000
  J54                  JUNCTION     0.070    1.219     0  12:07       0.841          13       0.000
  J55                  JUNCTION     0.000    0.688     0  12:06           0         7.5       0.000
  J56                  JUNCTION     0.055    2.935     0  12:07       0.572        42.2       0.000
  J57                  JUNCTION     0.023    1.348     0  12:06       0.227        25.4       0.000
  J58                  JUNCTION     0.000    1.440     0  12:06           0        26.3       0.000
  J59                  JUNCTION     0.027    1.466     0  12:06       0.272        26.5       0.000
  J60                  JUNCTION     0.037    1.502     0  12:06       0.364        26.9       0.000
  J61                  JUNCTION     0.000    0.000     0  00:00           0           0       0.000 ltr
  J62                  JUNCTION     0.000    0.000     0  00:00           0           0       0.000 ltr
  J63                  JUNCTION     0.000    0.000     0  00:00           0           0       0.000 ltr
  J64                  JUNCTION     0.000    0.000     0  00:00           0           0       0.000 ltr
  J65                  JUNCTION     0.045    0.443     0  12:05       0.491        6.54      -0.000
  J66                  JUNCTION     0.000    0.000     0  00:00           0           0       0.000 ltr
  J67                  JUNCTION     0.000    0.000     0  00:00           0           0       0.000 ltr
  J68                  JUNCTION     0.000    0.443     0  12:05           0        6.54       0.000
  J69                  JUNCTION     0.000    0.000     0  00:00           0           0       0.000 ltr
  J70                  JUNCTION     0.000    0.000     0  00:00           0           0       0.000 ltr
  J71                  JUNCTION     0.052    0.423     0  12:05       0.578        6.05       0.000
  J72                  JUNCTION     0.000    0.000     0  00:00           0           0       0.000 ltr
  J73                  JUNCTION     0.000    0.000     0  00:00           0           0       0.000 ltr
  J74                  JUNCTION     0.000    0.000     0  00:00           0           0       0.000 ltr
  J75                  JUNCTION     0.000    0.000     0  00:00           0           0       0.000 ltr
  J76                  JUNCTION     0.000    0.000     0  00:00           0           0       0.000 ltr
  J77                  JUNCTION     0.000    0.000     0  00:00           0           0       0.000 ltr
  J78                  JUNCTION     0.061    0.380     0  12:06       0.708        5.47      -0.000
  J79                  JUNCTION     0.000    0.000     0  00:00           0           0       0.000 ltr
  J80                  JUNCTION     0.000    0.000     0  00:00           0           0       0.000 ltr
  J81                  JUNCTION     0.000    0.319     0  12:06           0        4.77       0.000
  J82                  JUNCTION     0.000    0.000     0  00:00           0           0       0.000 ltr
  J83                  JUNCTION     0.000    0.000     0  00:00           0           0       0.000 ltr
  J84                  JUNCTION     0.000    0.000     0  00:00           0           0       0.000 ltr
  J85                  JUNCTION     0.000    0.000     0  00:00           0           0       0.000 ltr
  J86                  JUNCTION     0.061    0.319     0  12:05       0.708        4.77       0.000
  J87                  JUNCTION     0.000    0.000     0  00:00           0           0       0.000 ltr
  J88                  JUNCTION     0.000    0.000     0  00:00           0           0       0.000 ltr
  J89                  JUNCTION     0.000    0.000     0  00:00           0           0       0.000 ltr
  J90                  JUNCTION     0.000    0.000     0  00:00           0           0       0.000 ltr
  J91                  JUNCTION     0.070    0.258     0  12:05       0.836        4.06       0.000
  J92                  JUNCTION     0.027    0.027     0  12:05       0.272       0.272       0.000
  J93                  JUNCTION     0.015    0.042     0  12:05       0.137       0.409       0.000
  J94                  JUNCTION     0.015    0.056     0  12:05       0.137       0.546       0.000
  J95                  JUNCTION     0.010    0.066     0  12:05      0.0921       0.638       0.000
  J96                  JUNCTION     0.027    0.093     0  12:05       0.272        0.91       0.000
  J97                  JUNCTION     0.000    0.093     0  12:06           0        0.91       0.000
  J98                  JUNCTION     0.000    0.000     0  00:00           0           0       0.000 ltr
  J99                  JUNCTION     0.000    0.000     0  00:00           0           0       0.000 ltr
  J101                 JUNCTION     0.015    0.015     0  12:05       0.137       0.137       0.000
  J103                 JUNCTION     0.046    0.076     0  12:05       0.454        0.73       0.000
  J104                 JUNCTION     0.010    0.010     0  12:05      0.0921      0.0921       0.000
  J105                 JUNCTION     0.010    0.097     0  12:05      0.0921       0.914       0.000
  J106                 JUNCTION     0.019    0.019     0  12:05       0.183       0.183      -0.000
  J107                 JUNCTION     0.025    0.044     0  12:05        0.23       0.412       0.000
  J108                 JUNCTION     0.023    0.784     0  12:05       0.227        9.98       0.000
  J109                 JUNCTION     0.051    0.863     0  12:05       0.514        9.34       0.000
  J111                 JUNCTION     0.024    0.716     0  12:05        0.24        7.91       0.000
  J112                 JUNCTION     0.000    0.791     0  12:05           0        7.67      -0.000
  J113                 JUNCTION     0.000    0.000     0  00:00           0           0       0.000 ltr
  J120                 JUNCTION     0.099    0.268     0  12:05       0.947        2.56       0.000
  J122                 JUNCTION     0.011    0.339     0  12:05      0.0959        3.18       0.000
  J123                 JUNCTION     0.006    0.059     0  12:05      0.0482       0.525       0.000
  J124                 JUNCTION     0.016    0.054     0  12:05       0.143       0.477       0.000
  J125                 JUNCTION     0.021    0.037     0  12:05       0.191       0.334       0.000
  J126                 JUNCTION     0.016    0.016     0  12:05       0.143       0.143       0.000
  J127                 JUNCTION     0.000    0.000     0  00:00           0           0       0.000 ltr
  J132                 JUNCTION     0.000    0.000     0  00:00           0           0       0.000 ltr
  J133                 JUNCTION     0.188    0.237     0  12:05         1.8        2.23       0.000
  J135                 JUNCTION     0.095    0.331     0  12:05         0.9        3.13       0.000
  J137                 JUNCTION     0.011    0.401     0  12:05      0.0959        3.75       0.000
  J138                 JUNCTION     0.006    0.059     0  12:05      0.0482       0.525       0.000
  J139                 JUNCTION     0.016    0.054     0  12:05       0.143       0.477       0.000
  J140                 JUNCTION     0.021    0.037     0  12:05       0.191       0.334       0.000
  J141                 JUNCTION     0.016    0.016     0  12:05       0.143       0.143       0.000
  J142                 JUNCTION     0.011    0.011     0  12:05      0.0959      0.0959       0.000
  J143                 JUNCTION     0.021    0.049     0  12:05       0.191        0.43       0.000
  J144                 JUNCTION     0.016    0.016     0  12:05       0.143       0.143       0.000
  J145                 JUNCTION     0.011    0.011     0  12:05      0.0959      0.0959       0.000
  J146                 JUNCTION     0.026    0.048     0  12:05       0.238       0.429       0.000
  J147                 JUNCTION     0.011    0.011     0  12:05      0.0959      0.0959       0.000
  J148                 JUNCTION     0.000    0.049     0  12:05           0        0.43       0.000
  J149                 JUNCTION     0.000    0.000     0  00:00           0           0       0.000 ltr
  J154                 JUNCTION     0.000    0.000     0  00:00           0           0       0.000 ltr
  J155                 JUNCTION     0.174    0.222     0  12:05        1.66        2.09       0.000
  J157                 JUNCTION     0.095    0.316     0  12:05         0.9        2.99       0.000
  J159                 JUNCTION     0.016    0.387     0  12:05       0.143        3.61       0.000
  J160                 JUNCTION     0.006    0.054     0  12:05      0.0482       0.478       0.000
  J161                 JUNCTION     0.016    0.049     0  12:05       0.143        0.43       0.000
  J162                 JUNCTION     0.016    0.032     0  12:05       0.143       0.287       0.000
  J163                 JUNCTION     0.016    0.016     0  12:05       0.143       0.143       0.000
  J164                 JUNCTION     0.000    0.048     0  12:05           0       0.429       0.000
  J165                 JUNCTION     0.011    0.011     0  12:05      0.0959      0.0959       0.000
  J166                 JUNCTION     0.026    0.053     0  12:05       0.238       0.477       0.000
  J167                 JUNCTION     0.016    0.016     0  12:05       0.143       0.143       0.000
  J168                 JUNCTION     0.000    0.000     0  00:00           0           0       0.000 ltr
  J173                 JUNCTION     0.000    0.000     0  00:00           0           0       0.000 ltr
  J174                 JUNCTION     0.000    0.053     0  12:05           0       0.477       0.000
  J175                 JUNCTION     0.172    0.225     0  12:05         1.7        2.17       0.000
  J177                 JUNCTION     0.104    0.328     0  12:05       0.994        3.17       0.000
  J179                 JUNCTION     0.016    0.388     0  12:05       0.143        3.69       0.000
  J180                 JUNCTION     0.006    0.044     0  12:05      0.0482       0.383       0.000
  J181                 JUNCTION     0.011    0.039     0  12:05      0.0959       0.335       0.000
  J182                 JUNCTION     0.016    0.027     0  12:05       0.143       0.239       0.000
  J183                 JUNCTION     0.011    0.011     0  12:05      0.0959      0.0959       0.000
  J184                 JUNCTION     0.000    0.000     0  00:00           0           0       0.000 ltr
  J187                 JUNCTION     0.047    0.047     0  12:05        0.52        0.52       0.000
  J188                 JUNCTION     0.101    0.688     0  12:05        1.13         7.5       0.000
  J189                 JUNCTION     0.098    0.490     0  12:02        1.09         4.7      -0.000
  J190                 JUNCTION     0.064    0.465     0  12:05        0.75         4.5       0.000
  J191                 JUNCTION     0.000    0.452     0  12:02           0         4.5       0.000
  J192                 JUNCTION     0.000    0.688     0  12:06           0         7.5       0.000
  J193                 JUNCTION     0.000    1.154     0  12:02           0        12.2       0.000
  J197                 JUNCTION     0.036    0.073     0  12:10       0.881        1.61       0.000
  J198                 JUNCTION     0.058    0.153     0  12:13        1.45        3.54       0.000
  J199                 JUNCTION     0.060    0.193     0  12:15        1.49        5.45       0.000
  J200                 JUNCTION     0.040    0.247     0  12:09       0.824        6.51       0.000
  J201                 JUNCTION     0.136    0.699     0  12:07        2.27        16.5       0.000
  J202                 JUNCTION     0.014    0.014     0  12:05       0.238       0.238       0.000
  J203                 JUNCTION     0.023    0.023     0  12:05       0.489       0.489       0.000
[...]
  130                  CONDUIT     0.011     0  12:05      0.69    0.19    0.27
  131                  CONDUIT     0.016     0  12:05      0.76    0.28    0.36
  133                  CONDUIT     0.011     0  12:05      0.69    0.19    0.27
  134                  CONDUIT     0.000     0  00:00      0.00    0.00    0.00
  135                  CONDUIT     0.048     0  12:05      0.86    0.17    0.25
  136                  CONDUIT     0.049     0  12:05      2.57    0.05    0.12
  137                  CONDUIT     0.011     0  12:05      0.69    0.19    0.27
  143                  CONDUIT     0.000     0  00:00      0.00    0.00    0.00
  144                  CONDUIT     0.053     0  12:06      0.85    0.19    0.28
  149                  CONDUIT     0.011     0  12:05      0.82    0.04    0.11
  150                  CONDUIT     0.027     0  12:06      0.51    0.31    0.41
  151                  CONDUIT     0.039     0  12:05      0.96    0.19    0.29
  152                  CONDUIT     0.044     0  12:06      0.66    0.35    0.45
  158                  CONDUIT     0.000     0  00:00      0.00    0.00    0.00
  159                  CONDUIT     0.048     0  12:05      0.85    0.17    0.25
  164                  CONDUIT     0.016     0  12:05      0.80    0.08    0.17
  165                  CONDUIT     0.032     0  12:06      0.56    0.34    0.44
  166                  CONDUIT     0.049     0  12:05      0.99    0.25    0.35
  167                  CONDUIT     0.054     0  12:06      1.03    0.20    0.29
  168                  CONDUIT     0.011     0  12:05      0.70    0.19    0.27
  169                  CONDUIT     0.016     0  12:05      0.76    0.28    0.36
  170                  CONDUIT     0.048     0  12:05      2.49    0.04    0.09
  171                  CONDUIT     0.053     0  12:05      2.61    0.04    0.10
  177                  CONDUIT     0.000     0  00:00      0.00    0.00    0.00
  178                  CONDUIT     0.452     0  12:02      1.29    1.00    1.00
  179                  CONDUIT     0.452     0  12:03      2.62    0.38    0.44
  180                  CONDUIT     0.692     0  11:50      1.56    1.00    1.00
  183                  CONDUIT     0.338     0  12:05      2.48    0.16    0.27
  184                  CONDUIT     0.401     0  12:06      1.91    0.59    0.63
  185                  CONDUIT     0.396     0  12:02      2.54    1.08    1.00
  186                  CONDUIT     0.388     0  12:06      2.99    0.88    0.73
  187                  CONDUIT     0.688     0  12:06      1.93    0.15    0.24
  188                  CONDUIT     0.688     0  12:06      2.09    0.13    0.21
  189                  CONDUIT     0.688     0  12:06      1.80    0.14    0.22
  193                  CONDUIT     1.219     0  12:07      0.86    0.62    0.67
  194                  CONDUIT     0.014     0  12:07      0.64    0.16    0.22
  195                  CONDUIT     0.023     0  12:09      0.82    0.17    0.22
  196                  CONDUIT     0.021     0  12:08      0.89    0.12    0.16
  197                  CONDUIT     0.014     0  12:07      0.88    0.06    0.10
  198                  CONDUIT     0.073     0  12:11      0.83    0.64    0.67
  199                  CONDUIT     0.113     0  11:52      0.93    1.00    1.00
  200                  CONDUIT     0.193     0  12:16      1.17    0.45    0.50
  201                  CONDUIT     0.247     0  12:09      1.25    0.52    0.57
  202                  CONDUIT     2.935     0  12:07      2.16    0.46    0.53
  203                  CONDUIT     0.784     0  12:05      1.66    0.60    0.65
  204                  CONDUIT     0.200     0  12:06      1.16    0.18    0.25
  205                  CONDUIT     0.047     0  12:05      1.17    0.09    0.16
  210                  CONDUIT     0.052     0  12:06      0.99    0.15    0.22
  216                  CONDUIT     0.078     0  11:41      0.22    1.00    1.00
  217                  CONDUIT     0.000     0  00:00      0.00    0.00    0.00
  218                  CONDUIT     0.000     0  00:00      0.00    0.00    0.00
  219                  CONDUIT     0.000     0  00:00      0.00    0.00    0.00
  236                  CONDUIT     0.000     0  00:00      0.00    0.00    0.00
  237                  CONDUIT     0.026     0  12:05      0.89    0.10    0.18
  240                  CONDUIT     0.064     0  12:05      1.28    0.08    0.19
  248                  CONDUIT     0.047     0  12:06      0.89    0.06    0.13
  249                  CONDUIT     0.182     0  12:06      1.35    0.19    0.27
  257                  CONDUIT     0.345     0  11:52      1.90    1.07    1.00
  258                  CONDUIT     0.047     0  12:05      2.44    0.36    0.41
  259                  CONDUIT     0.000     0  00:00      0.00    0.00    0.00
  260                  CONDUIT     0.021     0  12:05      0.84    0.08    0.16
  262                  CONDUIT     0.000     0  00:00      0.00    0.00    0.00
  263                  CONDUIT     0.000     0  00:00      0.00    0.00    0.00
  264                  CONDUIT     0.000     0  00:00      0.00    0.00    0.00
  267                  CONDUIT     0.064     0  12:06      1.19    0.08    0.14
  273                  CONDUIT     0.178     0  12:15      1.51    1.08    1.00
  274                  CONDUIT     0.015     0  12:06      0.67    0.04    0.11
  278                  CONDUIT     0.066     0  12:06      1.17    0.08    0.15
  282                  CONDUIT     0.725     0  12:05      1.91    0.74    0.64
  284                  CONDUIT     0.067     0  13:08      1.00    0.13    0.21
  289                  CONDUIT     0.623     0  12:08      1.48    0.26    0.33
  291                  CONDUIT     0.991     0  12:06      1.51    0.86    0.89
  292                  CONDUIT     0.023     0  13:05      0.86    0.16    0.27
  293                  CONDUIT     0.044     0  13:07      0.67    0.37    0.47
  294                  CONDUIT     0.059     0  13:06      1.14    0.22    0.32
  295                  CONDUIT     0.059     0  13:07      0.77    0.36    0.45
  296                  CONDUIT     0.059     0  13:07      0.78    0.18    0.29
  297                  CONDUIT     0.000     0  00:00      0.00    0.00    0.00
  298                  CONDUIT     0.000     0  00:00      0.00    0.00    0.00
  300                  CONDUIT     0.000     0  00:00      0.00    0.00    0.00
  301                  CONDUIT     0.023     0  12:06      0.83    0.15    0.20
  303                  CONDUIT     0.023     0  12:06      1.09    0.12    0.17
  304                  CONDUIT     0.023     0  12:08      0.82    0.23    0.29
  305                  CONDUIT     0.057     0  12:16      0.79    0.60    0.63
  306                  CONDUIT     0.021     0  12:08      0.80    0.15    0.20
  307                  CONDUIT     0.043     0  12:06      0.97    0.04    0.09
  308                  CONDUIT     0.083     0  12:06      1.34    0.06    0.11
  309                  CONDUIT     0.092     0  12:08      0.99    0.16    0.23
  311                  CONDUIT     0.375     0  12:08      1.58    0.40    0.44
  312                  CONDUIT     0.230     0  12:07      1.10    1.00    1.00
  315                  CONDUIT     0.021     0  13:06      0.68    0.04    0.10
  316                  CONDUIT     0.258     0  13:06      1.26    0.15    0.22
  317                  CONDUIT     0.046     0  12:07      0.86    0.10    0.16
  318                  CONDUIT     0.086     0  12:06      1.15    0.15    0.22
  319                  CONDUIT     0.000     0  00:00      0.00    0.00    0.00
  320                  CONDUIT     0.000     0  00:00      0.00    0.00    0.00
  321                  CONDUIT     0.000     0  00:00      0.00    0.00    0.00
  322                  CONDUIT     0.000     0  00:00      0.00    0.00    0.00
  323                  CONDUIT     0.000     0  00:00      0.00    0.00    0.00
  325                  CONDUIT     0.000     0  00:00      0.00    0.00    0.00
  326                  CONDUIT     0.000     0  00:00      0.00    0.00    0.00
  327                  CONDUIT     0.007     0  11:30      0.50    1.08    1.00
  328                  CONDUIT     0.007     0  11:19      0.42    1.04    1.00
  329                  CONDUIT     0.007     0  12:06      0.52    0.81    0.69
  330                  CONDUIT     0.012     0  11:34      0.81    1.03    1.00
  331                  CONDUIT     0.039     0  12:06      0.47    0.79    0.84
  332                  CONDUIT     0.012     0  12:06      0.61    0.01    0.08
  333                  CONDUIT     0.026     0  12:06      0.90    0.02    0.11
  334                  CONDUIT     0.090     0  12:06      0.88    0.15    0.34
  335                  CONDUIT     0.152     0  12:06      1.27    0.18    0.38
  336                  CONDUIT     0.177     0  12:06      1.40    0.20    0.40
  337                  CONDUIT     0.177     0  12:07      1.26    0.23    0.44
  338                  CONDUIT     0.222     0  12:07      0.94    0.47    0.66
  339                  CONDUIT     0.222     0  12:07      1.15    0.57    0.65
  340                  CONDUIT     0.222     0  12:07      1.98    0.27    0.37
  341                  CONDUIT     0.243     0  12:07      1.44    0.48    0.56
  350                  CONDUIT     0.000     0  00:00      0.00    0.00    0.00
  352                  CONDUIT     0.000     0  00:00      0.00    0.00    0.00
  353                  CONDUIT     0.075     0  12:11      1.14    0.43    0.47
  354                  CONDUIT     0.129     0  12:12      1.05    0.66    0.68
  355                  CONDUIT     0.023     0  12:09      0.54    0.43    0.49
  356                  CONDUIT     0.023     0  12:09      1.04    0.17    0.23
  357                  CONDUIT     0.038     0  12:09      0.74    0.40    0.45
  358                  CONDUIT     0.320     0  12:08      2.03    0.22    0.30
  359                  CONDUIT     0.699     0  12:07      1.87    0.56    0.61
  360                  CONDUIT     0.767     0  12:07      1.79    0.60    0.65
  361                  CONDUIT     1.605     0  12:07      2.40    0.26    0.34
  362                  CONDUIT     1.642     0  12:07      1.85    0.35    0.42
  365                  CONDUIT     0.000     0  00:00      0.00    0.00    0.00
  366                  CONDUIT     0.020     0  12:05      0.91    0.10    0.22
  367                  CONDUIT     0.059     0  12:06      1.15    0.22    0.34
  368                  CONDUIT     0.000     0  00:00      0.00    0.00    0.00
  369                  CONDUIT     0.258     0  12:08      1.79    0.38    0.48
  370                  CONDUIT     0.000     0  00:00      0.00    0.00    0.00
  371                  CONDUIT     0.015     0  13:05      0.88    0.02    0.06
  372                  CONDUIT     0.000     0  00:00      0.00    0.00    0.00
  373                  CONDUIT     0.015     0  12:05      0.76    0.19    0.26
  374                  CONDUIT     0.000     0  00:00      0.00    0.00    0.00
  375                  CONDUIT     0.000     0  00:00      0.00    0.00    0.00
  376                  CONDUIT     0.000     0  00:00      0.00    0.00    0.00
  377                  CONDUIT     0.000     0  00:00      0.00    0.00    0.00
  378                  CONDUIT     0.170     0  12:06      1.36    0.35    0.42
  379                  CONDUIT     0.236     0  12:06      1.45    0.49    0.55
  380                  CONDUIT     0.222     0  12:06      1.44    0.46    0.52
  381                  CONDUIT     0.225     0  12:06      1.44    0.46    0.52
  382                  CONDUIT     0.268     0  12:05      1.57    0.48    0.54
  383                  CONDUIT     0.330     0  12:06      1.64    0.59    0.63
  384                  CONDUIT     0.316     0  12:05      1.85    0.47    0.52
  385                  CONDUIT     0.327     0  12:06      1.91    0.46    0.51
  386                  CONDUIT     0.000     0  00:00      0.00    0.00    0.00
  387                  CONDUIT     0.000     0  00:00      0.00    0.00    0.00
  388                  CONDUIT     0.000     0  00:00      0.00    0.00    0.00
  389                  CONDUIT     0.504     0  12:08      1.55    0.24    0.31
  390                  CONDUIT     0.042     0  12:05      0.90    0.47    0.48
  391                  CONDUIT     0.597     0  12:08      1.57    0.23    0.30
  392                  CONDUIT     0.000     0  00:00      0.00    0.00    0.00
  393                  CONDUIT     0.620     0  12:06      1.57    0.72    0.76
  394                  CONDUIT     0.113     0  12:06      1.26    0.14    0.22
  395                  CONDUIT     0.321     0  12:06      1.33    0.43    0.50
  396                  CONDUIT     0.000     0  00:00      0.00    0.00    0.00
  397                  CONDUIT     0.000     0  00:00      0.00    0.00    0.00
  398                  CONDUIT     0.077     0  12:06      0.73    0.33    0.40
  399                  CONDUIT     0.051     0  12:06      0.97    0.11    0.19
  400                  CONDUIT     0.028     0  12:05      0.84    0.09    0.17
  401                  CONDUIT     1.151     0  12:07      2.06    0.18    0.26
  402                  CONDUIT     0.486     0  12:02      2.61    0.16    0.22
  404                  CONDUIT     0.000     0  00:00      0.00    0.00    0.00
  405                  CONDUIT     0.000     0  00:00      0.00    0.00    0.00
  406                  CONDUIT     0.716     0  12:05      1.60    0.99    0.99
  407                  CONDUIT     0.015     0  12:09      0.70    0.21    0.31
  408                  CONDUIT     0.015     0  12:10      0.69    0.09    0.18
  409                  CONDUIT     1.502     0  12:06      2.13    0.35    0.44
  410                  CONDUIT     1.516     0  12:07      1.84    0.43    0.51
  411                  CONDUIT     0.000     0  00:00      0.00    0.00    0.00
  412                  CONDUIT     0.020     0  12:06      0.82    0.02    0.07
  413                  CONDUIT     0.259     0  12:03      1.61    0.15    0.24
  414                  CONDUIT     0.000     0  00:00      0.00    0.00    0.00
  415                  CONDUIT     0.015     0  12:08      0.87    0.55    0.53
  416                  CONDUIT     0.000     0  00:00      0.00    0.00    0.00
  417                  CONDUIT     0.000     0  00:00      0.00    0.00    0.00
  418                  CONDUIT     0.000     0  00:00      0.00    0.00    0.00
  419                  CONDUIT     0.000     0  00:00      0.00    0.00    0.00
  420                  CONDUIT     0.000     0  00:00      0.00    0.00    0.00
  421                  CONDUIT     0.010     0  13:06      0.63    0.01    0.04
  422                  CONDUIT     0.017     0  13:06      0.69    0.03    0.07
  423                  CONDUIT     0.017     0  13:06      0.68    0.03    0.06
  424                  CONDUIT     0.017     0  13:06      0.69    0.02    0.06
  425                  CONDUIT     0.017     0  13:06      0.70    0.02    0.06
  426                  CONDUIT     0.017     0  13:06      0.69    0.02    0.06
  427                  CONDUIT     0.017     0  13:06      0.70    0.02    0.06
  428                  CONDUIT     0.026     0  13:06      0.75    0.04    0.08
  429                  CONDUIT     0.000     0  00:00      0.00    0.00    0.00
  430                  CONDUIT     0.007     0  12:05      0.48    0.03    0.09
  431                  CONDUIT     0.007     0  12:06      0.48    0.03    0.09
  432                  CONDUIT     0.007     0  12:06      0.47    0.03    0.09
  433                  CONDUIT     0.007     0  12:06      0.47    0.03    0.08
  434                  CONDUIT     0.007     0  12:06      0.48    0.02    0.07
  435                  CONDUIT     0.007     0  12:06      0.46    0.03    0.08
  436                  CONDUIT     0.007     0  12:06      0.50    0.02    0.07
  437                  CONDUIT     0.006     0  12:06      0.46    0.02    0.07
  438                  CONDUIT     0.025     0  12:06      0.72    0.08    0.16
  439                  CONDUIT     0.010     0  13:06      0.58    0.03    0.09
  440                  CONDUIT     0.040     0  12:06      1.84    0.04    0.10
  441                  CONDUIT     0.040     0  12:06      1.08    0.07    0.13
  442                  CONDUIT     0.000     0  00:00      0.00    0.00    0.00
  443                  CONDUIT     0.006     0  12:05      0.52    0.02    0.06
  444                  CONDUIT     0.006     0  12:05      0.48    0.02    0.06
  445                  CONDUIT     0.624     0  12:08      1.46    0.26    0.33
  446                  CONDUIT     0.624     0  12:08      1.38    0.28    0.35
  447                  CONDUIT     0.623     0  12:08      1.51    0.25    0.32
  448                  CONDUIT     0.623     0  12:08      1.38    0.28    0.34
  449                  CONDUIT     0.649     0  12:08      1.54    0.25    0.32
  450                  CONDUIT     0.725     0  12:08      1.56    0.28    0.35
  451                  CONDUIT     0.725     0  12:08      1.04    0.47    0.52
  452                  CONDUIT     0.716     0  12:05      1.97    0.75    0.77
  PumpSR               PUMP        0.408     0  01:43              1.00
  PumpSL               PUMP        0.180     0  00:14              1.00
  
  
  *************************
  Conduit Surcharge Summary
  *************************
  
  ----------------------------------------------------------------------------
                                                           Hours        Hours 
                         --------- Hours Full --------   Above Full   Capacity
  Conduit                Both Ends  Upstream  Dnstream   Normal Flow   Limited
  ----------------------------------------------------------------------------
  27                          1.80      1.80      1.80      1.79         1.80
  51                          0.12      0.12      0.12      0.12         0.12
  52                          0.39      0.39      0.39      0.38         0.39
  102                         1.26      1.26      1.26      1.26         1.26
  178                         0.13      0.13      0.13      0.12         0.13
  180                         0.62      0.62      0.62      0.62         0.62
  185                         0.24      0.24      0.24      0.23         0.24
  199                         5.53      5.53      5.53      0.01         5.53
  216                         1.28      1.28      1.28      1.27         1.28
  257                         0.62      0.62      0.62      0.04         0.62
  273                         0.25      0.25      0.25      0.24         0.25
  312                         0.98      0.98      0.98      0.01         0.98
  327                        11.40     11.40     11.40     11.40        11.40
  328                        12.70     12.70     12.70     12.68        12.70
  330                         4.36      4.36      4.36      4.36         4.36
  
  
  ***************
  Pumping Summary
  ***************
  
  ---------------------------------------------------------------------------------------------------------
                                                  Min       Avg       Max     Total     Power    % Time Off
                        Percent   Number of      Flow      Flow      Flow    Volume     Usage    Pump Curve
  Pump                 Utilized   Start-Ups       CMS       CMS       CMS  10^6 ltr     Kw-hr    Low   High
  ---------------------------------------------------------------------------------------------------------
  PumpSR                  67.22          75      0.00      0.36      0.41    21.051    115.40    0.0    0.0
  PumpSL                  67.74          46      0.00      0.15      0.18     8.912     45.78    0.0    0.0
  

  Analysis begun on:  Wed Jun 24 12:10:22 2026
  Analysis ended on:  Wed Jun 24 12:10:22 2026
  Total elapsed time: < 1 sec