
  EPA STORM WATER MANAGEMENT MODEL - VERSION 5.2 (Build 5.2.4)
  ------------------------------------------------------------

  
  ****************
  Analysis Options
  ****************
  Flow Units ............... GPM
  Process Models:
    Rainfall/Runoff ........ NO
    RDII ................... NO
    Snowmelt ............... NO
    Groundwater ............ NO
    Flow Routing ........... YES
    Ponding Allowed ........ NO
    Water Quality .......... NO
  Flow Routing Method ...... DYNWAVE
  Surcharge Method ......... EXTRAN
  Starting Date ............ 01/01/2002 00:00:00
  Ending Date .............. 01/01/2002 23:00:00
  Antecedent Dry Days ...... 5.0
  Report Time Step ......... 00:05:00
  Routing Time Step ........ 30.00 sec
  Variable Time Step ....... YES
  Maximum Trials ........... 8
  Number of Threads ........ 1
  Head Tolerance ........... 0.005000 ft
  
  
  **************************        Volume        Volume
  Flow Routing Continuity        acre-feet      10^6 gal
  **************************     ---------     ---------
  Dry Weather Inflow .......         0.130         0.042
  Wet Weather Inflow .......         0.000         0.000
  Groundwater Inflow .......         0.000         0.000
  RDII Inflow ..............         0.000         0.000
  External Inflow ..........         0.004         0.001
  External Outflow .........         0.132         0.043
  Flooding Loss ............         0.000         0.000
  Evaporation Loss .........         0.000         0.000
  Exfiltration Loss ........         0.000         0.000
  Initial Stored Volume ....         0.000         0.000
  Final Stored Volume ......         0.003         0.001
  Continuity Error (%) .....        -0.119
  
  
  *************************
  Highest Continuity Errors
  *************************
  Node AC068402 (1.11%)
  
  
  ***************************
  Time-Step Critical Elements
  ***************************
  None
  
  
  ********************************
  Highest Flow Instability Indexes
  ********************************
  All links are stable.
  
  
  *********************************
  Most Frequent Nonconverging Nodes
  *********************************
  Convergence obtained at all time steps.
  
  
  *************************
  Routing Time Step Summary
  *************************
  Minimum Time Step           :     9.57 sec
  Average Time Step           :    29.98 sec
  Maximum Time Step           :    30.00 sec
  % of Time in Steady State   :     0.00
  Average Iterations per Step :     2.00
  % of Steps Not Converging   :     0.00
  Time Step Frequencies       :
     30.000 -  3.817 sec      :   100.00 %
      3.817 -  0.486 sec      :     0.00 %
      0.486 -  0.062 sec      :     0.00 %
      0.062 -  0.008 sec      :     0.00 %
      0.008 -  0.001 sec      :     0.00 %
  
  
  ******************
  Node Depth Summary
  ******************
  
  ---------------------------------------------------------------------------------
                                 Average  Maximum  Maximum  Time of Max    Reported
                                   Depth    Depth      HGL   Occurrence   Max Depth
  Node                 Type         Feet     Feet     Feet  days hr:min        Feet
  ---------------------------------------------------------------------------------
  AC068202             JUNCTION     0.04     0.05   149.84     0  17:00        0.05
  AC068402             JUNCTION     0.14     0.19   149.12     0  08:01        0.19
  SW068401             JUNCTION     0.13     0.17   147.22     0  08:00        0.17
  SW068402             JUNCTION     0.11     0.14   148.10     0  08:01        0.14
  SW068403             JUNCTION     0.11     0.14   148.68     0  08:00        0.14
  SW068404             JUNCTION     0.11     0.14   149.24     0  08:00        0.14
  SW068405             JUNCTION     0.05     0.08   151.22     0  07:42        0.08
  SW068406             JUNCTION     0.10     0.13   149.96     0  08:00        0.13
  SW068407             JUNCTION     0.12     0.15   150.97     0  08:00        0.15
  SW068408             JUNCTION     0.07     0.08   151.69     0  08:00        0.08
  SW068409             JUNCTION     0.10     0.14   149.56     0  08:00        0.14
  SW068410             JUNCTION     0.10     0.13   150.20     0  08:00        0.13
  SW068411             JUNCTION     0.06     0.08   150.57     0  08:00        0.08
  SW068412             JUNCTION     0.06     0.08   150.96     0  16:09        0.08
  AC068201             OUTFALL      0.07     0.10   148.58     0  08:01        0.10
  AC068301             OUTFALL      0.09     0.12   146.06     0  08:00        0.12
  
  
  *******************
  Node Inflow Summary
  *******************
  
  -------------------------------------------------------------------------------------------------
                                  Maximum  Maximum                  Lateral       Total        Flow
                                  Lateral    Total  Time of Max      Inflow      Inflow     Balance
                                   Inflow   Inflow   Occurrence      Volume      Volume       Error
  Node                 Type           GPM      GPM  days hr:min    10^6 gal    10^6 gal     Percent
  -------------------------------------------------------------------------------------------------
  AC068202             JUNCTION      3.18     3.18     0  07:00     0.00277     0.00277       0.344
  AC068402             JUNCTION      0.00    20.95     0  08:00           0      0.0167       1.122
  SW068401             JUNCTION      7.16    30.64     0  08:00     0.00624      0.0265       0.394
  SW068402             JUNCTION      0.00    23.48     0  08:00           0      0.0203       0.363
  SW068403             JUNCTION      0.00    23.48     0  08:00           0      0.0204       0.238
  SW068404             JUNCTION      0.00    23.48     0  08:00           0      0.0204       0.226
  SW068405             JUNCTION      6.00     6.00     0  07:00     0.00415     0.00415       0.217
  SW068406             JUNCTION      3.20    23.48     0  07:59     0.00279      0.0205       0.372
  SW068407             JUNCTION      4.50    10.50     0  07:42     0.00392     0.00806       0.995
  SW068408             JUNCTION     24.25    24.25     0  07:00      0.0211      0.0211       0.263
  SW068409             JUNCTION      0.00    17.77     0  08:00           0       0.014       0.621
  SW068410             JUNCTION      1.03    17.77     0  08:00    0.000896       0.014       0.393
  SW068411             JUNCTION      0.43     6.24     0  08:00     0.00024     0.00518       0.466
  SW068412             JUNCTION      1.84     5.81     0  17:00      0.0016     0.00494       0.171
  AC068201             OUTFALL       0.00    20.93     0  08:01           0      0.0165       0.000
  AC068301             OUTFALL       0.00    30.64     0  08:00           0      0.0264       0.000
  
  
  **********************
  Node Surcharge Summary
  **********************
  
  No nodes were surcharged.
  
  
  *********************
  Node Flooding Summary
  *********************
  
  No nodes were flooded.
  
  
  ***********************
  Outfall Loading Summary
  ***********************
  
  -----------------------------------------------------------
                         Flow       Avg       Max       Total
                         Freq      Flow      Flow      Volume
  Outfall Node           Pcnt       GPM       GPM    10^6 gal
  -----------------------------------------------------------
  AC068201              97.57     12.22     20.93       0.016
  AC068301              99.49     19.23     30.64       0.026
  -----------------------------------------------------------
  System                98.53     31.45     51.56       0.043
  
  
  ********************
  Link Flow Summary
  ********************
  
  -----------------------------------------------------------------------------
                                 Maximum  Time of Max   Maximum    Max/    Max/
                                  |Flow|   Occurrence   |Veloc|    Full    Full
  Link                 Type          GPM  days hr:min    ft/sec    Flow   Depth
  -----------------------------------------------------------------------------
  AC068202-AC068402    CONDUIT      3.18     0  17:00      0.41    0.01    0.18
  AC068402-AC068201    CONDUIT     20.93     0  08:01      0.84    0.11    0.22
  SW068401-AC068301    CONDUIT     30.64     0  08:00      1.24    0.11    0.21
  SW068402-SW068401    CONDUIT     23.48     0  08:01      0.86    0.10    0.23
  SW068403-SW068402    CONDUIT     23.48     0  08:00      1.00    0.09    0.21
  SW068404-SW068403    CONDUIT     23.48     0  08:00      1.01    0.09    0.21
  SW068405-SW068407    CONDUIT      6.00     0  07:42      0.39    0.03    0.17
  SW068406-SW068404    CONDUIT     23.48     0  08:00      1.05    0.08    0.20
  SW068407-SW068410    CONDUIT     10.50     0  08:00      0.73    0.05    0.15
  SW068408-SW068412    CONDUIT      3.97     0  17:00      0.60    0.02    0.09
  SW068409-AC068402    CONDUIT     17.77     0  08:00      0.60    0.10    0.25
  SW068410-SW068409    CONDUIT     17.77     0  08:00      0.79    0.08    0.20
  SW068411-SW068410    CONDUIT      6.24     0  08:00      0.43    0.03    0.16
  SW068412-SW068411    CONDUIT      5.84     0  16:11      0.59    0.03    0.12
  1                    CONDUIT     20.28     0  07:59      1.06    0.01    0.11
  
  
  ***************************
  Flow Classification Summary
  ***************************
  
  -------------------------------------------------------------------------------------
                      Adjusted    ---------- Fraction of Time in Flow Class ---------- 
                       /Actual         Up    Down  Sub   Sup   Up    Down  Norm  Inlet 
  Conduit               Length    Dry  Dry   Dry   Crit  Crit  Crit  Crit  Ltd   Ctrl  
  -------------------------------------------------------------------------------------
  AC068202-AC068402       1.00   0.00  0.00  0.00  1.00  0.00  0.00  0.00  0.98  0.00
  AC068402-AC068201       1.00   0.00  0.00  0.00  1.00  0.00  0.00  0.00  0.00  0.00
  SW068401-AC068301       1.00   0.00  0.00  0.00  1.00  0.00  0.00  0.00  0.00  0.00
  SW068402-SW068401       1.00   0.00  0.01  0.00  0.99  0.00  0.00  0.00  0.99  0.00
  SW068403-SW068402       1.00   0.00  0.00  0.00  1.00  0.00  0.00  0.00  0.88  0.00
  SW068404-SW068403       1.00   0.00  0.00  0.00  1.00  0.00  0.00  0.00  0.84  0.00
  SW068405-SW068407       1.00   0.00  0.00  0.00  1.00  0.00  0.00  0.00  1.00  0.00
  SW068406-SW068404       1.00   0.00  0.00  0.00  1.00  0.00  0.00  0.00  0.98  0.00
  SW068407-SW068410       1.00   0.00  0.00  0.00  0.00  0.00  0.00  1.00  0.00  0.00
  SW068408-SW068412       1.00   0.00  0.00  0.00  0.00  0.00  0.00  1.00  0.00  0.00
  SW068409-AC068402       1.00   0.00  0.00  0.00  1.00  0.00  0.00  0.00  0.98  0.00
  SW068410-SW068409       1.00   0.00  0.00  0.00  1.00  0.00  0.00  0.00  0.95  0.00
  SW068411-SW068410       1.00   0.00  0.00  0.00  1.00  0.00  0.00  0.00  1.00  0.00
  SW068412-SW068411       1.00   0.00  0.00  0.00  1.00  0.00  0.00  0.00  0.93  0.00
  1                       1.00   0.00  0.00  0.00  1.00  0.00  0.00  0.00  0.99  0.00
  
  
  *************************
  Conduit Surcharge Summary
  *************************
  
  No conduits were surcharged.
  

  Analysis begun on:  Wed Jun 24 12:10:27 2026
  Analysis ended on:  Wed Jun 24 12:10:27 2026
  Total elapsed time: < 1 sec