
  EPA STORM WATER MANAGEMENT MODEL - VERSION 5.2 (Build 5.2.4)
  ------------------------------------------------------------

  WARNING 08: elevation drop exceeds length for Conduit 2090
  
  ****************
  Analysis Options
  ****************
  Flow Units ............... CFS
  Process Models:
    Rainfall/Runoff ........ YES
    RDII ................... NO
    Snowmelt ............... NO
    Groundwater ............ NO
    Flow Routing ........... YES
    Ponding Allowed ........ YES
    Water Quality .......... NO
  Infiltration Method ...... MODIFIED_HORTON
  Flow Routing Method ...... DYNWAVE
  Surcharge Method ......... EXTRAN
  Starting Date ............ 07/01/2018 00:00:00
  Ending Date .............. 07/01/2018 23:54:00
  Antecedent Dry Days ...... 5.0
  Report Time Step ......... 00:06:00
  Wet Time Step ............ 00:05:00
  Dry Time Step ............ 01:00:00
  Routing Time Step ........ 5.00 sec
  Variable Time Step ....... YES
  Maximum Trials ........... 4
  Number of Threads ........ 1
  Head Tolerance ........... 0.005000 ft
  
  
  **************************        Volume         Depth
  Runoff Quantity Continuity     acre-feet        inches
  **************************     ---------       -------
  Total Precipitation ......        15.479         4.000
  Evaporation Loss .........         0.000         0.000
  Infiltration Loss ........         1.666         0.431
  Surface Runoff ...........        14.093         3.642
  Final Storage ............         0.100         0.026
  Continuity Error (%) .....        -2.456
  
  
  **************************        Volume        Volume
  Flow Routing Continuity        acre-feet      10^6 gal
  **************************     ---------     ---------
  Dry Weather Inflow .......         0.000         0.000
  Wet Weather Inflow .......        14.092         4.592
  Groundwater Inflow .......         0.000         0.000
  RDII Inflow ..............         0.000         0.000
  External Inflow ..........         0.000         0.000
  External Outflow .........         9.551         3.112
  Flooding Loss ............         4.427         1.443
  Evaporation Loss .........         0.000         0.000
  Exfiltration Loss ........         0.000         0.000
  Initial Stored Volume ....         0.000         0.000
  Final Stored Volume ......         0.111         0.036
  Continuity Error (%) .....         0.020
  
  
  *************************
  Highest Continuity Errors
  *************************
  Node 1047 (14.28%)
  Node 1109 (3.69%)
  Node 1160 (3.60%)
  Node 1051 (3.14%)
  
  
  ***************************
  Time-Step Critical Elements
  ***************************
  Link 2121 (18.63%)
  Link 2130 (5.98%)
  Link 2102 (3.81%)
  Link 2107 (3.34%)
  Link 2027 (2.83%)
  
  
  ********************************
  Highest Flow Instability Indexes
  ********************************
  Link 2114 (20)
  Link 2134 (4)
  Link 2016 (4)
  Link 2130 (2)
  Link 2150 (2)
  
  
  *********************************
  Most Frequent Nonconverging Nodes
  *********************************
  Node OFALL-10 (6.13%)
  Node 1099 (1.50%)
  Node 1145 (1.42%)
  Node 1144 (1.34%)
  Node 1097 (1.33%)
  
  
  *************************
  Routing Time Step Summary
  *************************
  Minimum Time Step           :     0.04 sec
  Average Time Step           :     3.48 sec
  Maximum Time Step           :     5.00 sec
  % of Time in Steady State   :     0.00
  Average Iterations per Step :     2.17
  % of Steps Not Converging   :     6.13
  Time Step Frequencies       :
      5.000 -  0.910 sec      :    79.93 %
      0.910 -  0.166 sec      :    19.17 %
      0.166 -  0.030 sec      :     0.90 %
      0.030 -  0.005 sec      :     0.00 %
      0.005 -  0.001 sec      :     0.00 %
  
  
  ***************************
  Subcatchment Runoff Summary
  ***************************
  
  ------------------------------------------------------------------------------------------------------------------------------
                            Total      Total      Total      Total     Imperv       Perv      Total       Total     Peak  Runoff
                           Precip      Runon       Evap      Infil     Runoff     Runoff     Runoff      Runoff   Runoff   Coeff
  Subcatchment                 in         in         in         in         in         in         in    10^6 gal      CFS
  ------------------------------------------------------------------------------------------------------------------------------
  1                          4.00       0.00       0.00       0.00       4.08       0.01       4.08        0.01     1.19   1.020
  10                         4.00       0.00       0.00       0.37       3.70       0.88       3.70        0.06     5.96   0.924
  11                         4.00       0.00       0.00       0.41       3.67       0.98       3.67        0.06     5.34   0.918
  12                         4.00       0.00       0.00       0.26       3.85       0.74       3.85        0.02     2.05   0.963
  13                         4.00       0.00       0.00       0.07       4.08       0.26       4.08        0.01     0.59   1.020
  14                         4.00       0.00       0.00       0.47       3.56       0.86       3.56        0.09     6.68   0.889
  15                         4.00       0.00       0.00       0.27       3.78       0.65       3.78        0.04     3.31   0.944
  16                         4.00       0.00       0.00       0.25       3.85       0.72       3.85        0.05     4.91   0.964
  17                         4.00       0.00       0.00       0.26       3.86       0.75       3.86        0.02     2.53   0.966
  18                         4.00       0.00       0.00       0.34       3.78       0.93       3.78        0.01     1.14   0.944
  19                         4.00       0.00       0.00       0.40       3.64       0.82       3.64        0.07     5.61   0.911
  2                          4.00       0.00       0.00       0.49       3.55       0.94       3.55        0.13    10.87   0.887
  20                         4.00       0.00       0.00       0.55       3.53       1.19       3.53        0.07     6.89   0.882
  21                         4.00       0.00       0.00       0.34       3.74       0.87       3.74        0.05     4.49   0.936
  22                         4.00       0.00       0.00       0.34       3.72       0.78       3.72        0.07     6.16   0.930
  23                         4.00       0.00       0.00       0.33       3.76       0.84       3.76        0.04     4.06   0.940
  24                         4.00       0.00       0.00       0.35       3.71       0.84       3.71        0.06     5.67   0.929
  25                         4.00       0.00       0.00       0.06       4.03       0.22       4.03        0.02     1.67   1.007
  26                         4.00       0.00       0.00       0.12       3.92       0.32       3.92        0.04     3.77   0.980
  27                         4.00       0.00       0.00       0.05       4.04       0.17       4.04        0.01     0.73   1.010
  28                         4.00       0.00       0.00       0.36       3.70       0.80       3.70        0.10     9.46   0.924
  29                         4.00       0.00       0.00       0.35       3.73       0.88       3.73        0.06     5.43   0.933
  3                          4.00       0.00       0.00       0.24       3.83       0.62       3.83        0.03     2.53   0.957
  30                         4.00       0.00       0.00       0.00       4.15       0.00       4.15        0.00     0.20   1.038
  31                         4.00       0.00       0.00       0.06       3.96       0.19       3.96        0.03     2.08   0.990
  32                         4.00       0.00       0.00       0.41       3.65       0.92       3.65        0.10     9.26   0.913
  33                         4.00       0.00       0.00       0.24       3.85       0.66       3.85        0.02     1.71   0.962
  34                         4.00       0.00       0.00       0.35       3.76       0.92       3.76        0.05     4.51   0.939
  35                         4.00       0.00       0.00       0.13       3.97       0.42       3.97        0.03     2.98   0.994
  36                         4.00       0.00       0.00       0.20       3.88       0.54       3.88        0.04     4.13   0.971
  37                         4.00       0.00       0.00       0.61       3.45       1.19       3.45        0.08     6.98   0.862
  38                         4.00       0.00       0.00       0.67       3.39       1.29       3.39        0.16    13.66   0.847
  39                         4.00       0.00       0.00       0.40       3.72       1.08       3.72        0.06     6.29   0.930
  4                          4.00       0.00       0.00       0.17       3.89       0.46       3.89        0.03     3.16   0.972
  40                         4.00       0.00       0.00       0.58       3.47       1.14       3.47        0.06     5.51   0.868
  41                         4.00       0.00       0.00       0.41       3.67       0.98       3.67        0.06     5.64   0.918
  42                         4.00       0.00       0.00       0.15       3.92       0.42       3.92        0.02     1.52   0.979
  43                         4.00       0.00       0.00       0.45       3.69       1.27       3.69        0.01     1.30   0.923
  44                         4.00       0.00       0.00       0.33       3.71       0.70       3.71        0.10     8.26   0.928
  45                         4.00       0.00       0.00       0.15       3.95       0.47       3.95        0.01     1.43   0.988
  46                         4.00       0.00       0.00       0.48       3.61       1.13       3.61        0.04     4.20   0.904
  47                         4.00       0.00       0.00       0.02       4.02       0.06       4.02        0.01     1.30   1.006
  48                         4.00       0.00       0.00       0.24       3.84       0.65       3.84        0.06     6.00   0.960
  49                         4.00       0.00       0.00       0.08       4.04       0.26       4.04        0.02     1.60   1.011
  5                          4.00       0.00       0.00       0.42       3.61       0.81       3.61        0.08     6.65   0.903
  50                         4.00       0.00       0.00       0.72       3.36       1.52       3.36        0.07     6.91   0.840
  51                         4.00       0.00       0.00       0.46       3.62       1.06       3.62        0.12    11.42   0.904
  53                         4.00       0.00       0.00       0.46       3.65       1.17       3.65        0.08     8.22   0.912
  54                         4.00       0.00       0.00       0.05       4.07       0.17       4.07        0.01     1.31   1.016
  55                         4.00       0.00       0.00       0.36       3.74       0.94       3.74        0.01     1.48   0.936
  56                         4.00       0.00       0.00       0.14       3.94       0.41       3.94        0.02     2.27   0.986
  57                         4.00       0.00       0.00       0.14       3.93       0.39       3.93        0.05     4.92   0.983
  58                         4.00       0.00       0.00       0.52       3.58       1.27       3.58        0.11    11.01   0.894
  59                         4.00       0.00       0.00       0.31       3.79       0.82       3.79        0.06     6.12   0.949
  6                          4.00       0.00       0.00       0.52       3.53       1.02       3.53        0.10     8.36   0.884
  60                         4.00       0.00       0.00       0.02       4.04       0.07       4.04        0.02     1.87   1.010
  61                         4.00       0.00       0.00       0.00       4.07       0.01       4.07        0.02     1.93   1.018
  62                         4.00       0.00       0.00       0.02       4.02       0.08       4.02        0.03     2.76   1.005
  63                         4.00       0.00       0.00       0.28       3.75       0.61       3.75        0.07     6.06   0.938
  65                         4.00       0.00       0.00       0.69       3.38       1.36       3.38        0.20    17.98   0.845
  66                         4.00       0.00       0.00       0.28       3.80       0.74       3.80        0.04     3.43   0.950
  67                         4.00       0.00       0.00       0.15       3.93       0.45       3.93        0.02     2.24   0.981
  68                         4.00       0.00       0.00       0.09       4.02       0.29       4.02        0.01     1.24   1.004
  69                         4.00       0.00       0.00       0.56       3.52       1.23       3.52        0.11    10.56   0.880
  7                          4.00       0.00       0.00       0.37       3.73       0.96       3.73        0.06     5.75   0.933
  70                         4.00       0.00       0.00       0.57       3.52       1.30       3.52        0.05     5.09   0.879
  71                         4.00       0.00       0.00       0.48       3.62       1.14       3.62        0.06     5.81   0.904
  72                         4.00       0.00       0.00       0.50       3.57       1.07       3.57        0.07     6.35   0.891
  73                         4.00       0.00       0.00       0.06       4.05       0.20       4.05        0.02     1.78   1.011
  74                         4.00       0.00       0.00       0.34       3.78       0.95       3.78        0.02     2.22   0.945
  75                         4.00       0.00       0.00       0.10       3.99       0.33       3.99        0.02     2.26   0.997
  76                         4.00       0.00       0.00       0.43       3.65       0.98       3.65        0.11    10.12   0.912
  77                         4.00       0.00       0.00       0.31       3.85       0.96       3.85        0.05     4.93   0.961
  78                         4.00       0.00       0.00       0.36       3.68       0.77       3.68        0.03     2.60   0.919
  79                         4.00       0.00       0.00       0.32       3.74       0.76       3.74        0.02     1.85   0.935
  8                          4.00       0.00       0.00       0.31       3.73       0.66       3.73        0.03     2.47   0.931
  80                         4.00       0.00       0.00       0.53       3.59       1.35       3.59        0.04     3.82   0.897
  81                         4.00       0.00       0.00       0.22       3.95       0.75       3.95        0.00     0.44   0.988
  83                         4.00       0.00       0.00       0.41       3.72       1.14       3.72        0.04     4.16   0.931
  84                         4.00       0.00       0.00       0.16       3.87       0.41       3.87        0.03     2.19   0.968
  86                         4.00       0.00       0.00       0.27       3.83       0.75       3.83        0.04     4.11   0.957
  87                         4.00       0.00       0.00       0.15       3.96       0.47       3.96        0.02     1.65   0.991
  88                         4.00       0.00       0.00       0.09       4.04       0.30       4.04        0.01     1.44   1.009
  89                         4.00       0.00       0.00       0.21       3.88       0.57       3.88        0.02     2.30   0.969
  9                          4.00       0.00       0.00       0.18       3.90       0.50       3.90        0.04     3.94   0.975
  91                         4.00       0.00       0.00       0.46       3.60       0.99       3.60        0.08     7.09   0.900
  92                         4.00       0.00       0.00       0.63       3.44       1.26       3.44        0.16    14.06   0.859
  93                         4.00       0.00       0.00       0.66       3.41       1.35       3.41        0.13    12.19   0.854
  94                         4.00       0.00       0.00       0.16       3.88       0.41       3.88        0.02     2.05   0.970
  95                         4.00       0.00       0.00       0.17       3.96       0.54       3.96        0.02     2.03   0.989
  97                         4.00       0.00       0.00       1.34       2.67       1.27       2.67        0.04     2.04   0.667
  
  
  ******************
  Node Depth Summary
  ******************
  
  ---------------------------------------------------------------------------------
                                 Average  Maximum  Maximum  Time of Max    Reported
                                   Depth    Depth      HGL   Occurrence   Max Depth
  Node                 Type         Feet     Feet     Feet  days hr:min        Feet
  ---------------------------------------------------------------------------------
  1002                 JUNCTION     1.30     7.00    13.50     0  02:52        6.64
  1003                 JUNCTION     1.33     7.00    23.36     0  02:52        7.00
  1004                 JUNCTION     0.76     4.09    26.97     0  03:10        4.02
  1005                 JUNCTION     1.37     6.87    30.38     0  03:10        6.84
  1006                 JUNCTION     1.30     7.00    34.12     0  02:52        7.00
  1007                 JUNCTION     1.20     7.00    39.29     0  02:52        7.00
  1008                 JUNCTION     0.88     7.00    49.91     0  03:05        7.00
  1009                 JUNCTION     0.38     2.51    66.48     0  03:10        2.34
  1010                 JUNCTION     0.32     1.85    81.87     0  03:10        1.78
  1011                 JUNCTION     0.39     2.38    86.13     0  03:10        2.28
  1012                 JUNCTION     0.34     2.11    87.42     0  03:10        1.94
  1013                 JUNCTION     5.15     7.00    94.19     0  02:51        5.92
  1014                 JUNCTION     6.32     7.00    92.88     0  02:51        7.00
  1015                 JUNCTION     2.59     7.00    97.13     0  02:52        3.71
  1016                 JUNCTION     2.41     7.00    97.24     0  02:52        2.93
  1017                 JUNCTION     4.57     7.00    94.87     0  02:51        5.58
  1018                 JUNCTION     0.19     1.18   102.76     0  03:10        1.04
  1019                 JUNCTION     0.06     0.30   101.16     0  03:10        0.28
  1020                 JUNCTION     1.29     2.47    94.04     0  03:10        2.12
  1021                 JUNCTION     1.26     2.16    93.73     0  03:10        1.90
  1026                 JUNCTION     0.14     0.63   106.73     0  03:10        0.59
  1027                 JUNCTION     0.42     1.17   107.02     0  03:10        1.10
  1028                 JUNCTION     0.87     2.30   110.14     0  03:10        2.13
  1030                 JUNCTION     0.26     1.94    88.74     0  03:10        1.66
  1031                 JUNCTION     0.53     2.04    88.50     0  03:10        1.83
  1032                 JUNCTION     0.21     1.43    91.24     0  03:10        1.24
  1033                 JUNCTION     0.13     0.87    91.33     0  03:10        0.74
  1034                 JUNCTION     0.30     1.09   104.11     0  03:10        0.99
  1035                 JUNCTION     0.42     1.12   104.00     0  03:10        1.03
  1036                 JUNCTION     0.24     1.57   111.58     0  03:10        1.29
  1037                 JUNCTION     0.49     1.39   111.01     0  03:10        1.28
  1038                 JUNCTION     0.16     1.34   112.10     0  03:10        0.90
  1039                 JUNCTION     0.06     0.61   111.01     0  03:10        0.50
  1041                 JUNCTION     0.65     4.24    88.71     0  03:10        3.85
  1042                 JUNCTION     0.45     3.40    91.16     0  03:10        2.71
  1043                 JUNCTION     0.23     2.84    91.34     0  03:10        2.11
  1044                 JUNCTION     0.88     2.11   111.64     0  03:10        1.95
  1045                 JUNCTION     0.42     1.52   111.55     0  03:10        1.39
  1046                 JUNCTION     0.20     1.32   121.08     0  03:10        1.20
  1047                 JUNCTION     0.61     1.79   121.08     0  03:10        1.68
  1048                 JUNCTION     0.86     2.74   122.15     0  03:10        2.54
  1049                 JUNCTION     0.65     3.61   123.36     0  03:10        3.06
  1050                 JUNCTION     0.44     1.70   125.21     0  03:10        1.51
  1051                 JUNCTION     0.73     1.60   124.73     0  03:10        1.53
  1052                 JUNCTION     0.84     2.03   125.73     0  03:10        1.88
  1053                 JUNCTION     0.37     3.07   130.41     0  03:10        2.35
  1054                 JUNCTION     0.34     4.02   132.17     0  03:10        2.75
  1057                 JUNCTION     0.30     1.97    82.06     0  03:10        1.84
  1058                 JUNCTION     0.20     1.68    84.00     0  03:10        1.51
  1059                 JUNCTION     0.09     0.87    84.24     0  03:10        0.64
  1060                 JUNCTION     0.09     1.02    84.12     0  03:10        0.79
  1061                 JUNCTION     0.15     1.02   101.31     0  03:10        0.88
  1062                 JUNCTION     0.29     1.53   101.49     0  03:10        1.36
  1063                 JUNCTION     0.72     2.35   119.59     0  03:10        2.13
  1064                 JUNCTION     0.71     1.69   118.83     0  03:10        1.60
  1065                 JUNCTION     0.50     1.60   122.54     0  03:10        1.48
  1066                 JUNCTION     0.12     1.22   119.59     0  03:10        1.00
  1067                 JUNCTION     0.24     1.50   126.73     0  03:10        1.33
  1068                 JUNCTION     0.69     1.75   134.12     0  03:10        1.60
  1069                 JUNCTION     0.19     1.18   134.09     0  03:10        1.04
  1070                 JUNCTION     0.12     0.69   133.55     0  03:10        0.62
  1072                 JUNCTION     0.95     5.41    70.41     0  03:10        4.22
  1073                 JUNCTION     0.48     4.35    69.80     0  03:10        3.39
  1074                 JUNCTION     2.04     6.63    70.44     0  03:10        5.43
  1075                 JUNCTION     0.43     2.78   106.39     0  03:10        2.33
  1076                 JUNCTION     0.84     1.67   104.60     0  03:10        1.59
  1077                 JUNCTION     0.73     1.61   115.67     0  03:10        1.52
  1078                 JUNCTION     0.42     1.52   126.48     0  03:10        1.37
  1079                 JUNCTION     0.69     1.66   126.29     0  03:10        1.54
  1080                 JUNCTION     1.17     2.75   135.05     0  03:10        2.51
  1081                 JUNCTION     0.44     1.91   135.02     0  03:10        1.69
  1082                 JUNCTION     0.48     1.71   134.69     0  03:10        1.52
  1084                 JUNCTION     0.74     6.99    54.38     0  03:10        6.75
  1085                 JUNCTION     0.99     7.00    54.24     0  03:05        7.00
  1086                 JUNCTION     0.92     7.00    54.36     0  03:05        7.00
  1087                 JUNCTION     1.85     7.00    51.38     0  03:05        7.00
  1088                 JUNCTION     0.10     0.66    68.66     0  03:10        0.54
  1089                 JUNCTION     0.77     3.48    84.31     0  03:10        2.85
  1090                 JUNCTION     0.07     0.45   112.18     0  03:10        0.40
  1091                 JUNCTION     0.49     2.22   116.05     0  03:10        1.82
  1092                 JUNCTION     0.82     1.59   112.26     0  03:10        1.47
  1093                 JUNCTION     0.06     0.37   128.15     0  03:10        0.33
  1094                 JUNCTION     0.27     2.94   120.65     0  03:10        1.89
  1095                 JUNCTION     0.12     0.86   118.89     0  03:10        0.70
  1096                 JUNCTION     0.78     1.99   118.14     0  03:10        1.79
  1097                 JUNCTION     2.28     7.00    68.65     0  02:51        7.00
  1098                 JUNCTION     2.10     7.00    68.99     0  02:51        7.00
  1099                 JUNCTION     1.39     7.00    70.87     0  03:05        7.00
  1100                 JUNCTION     0.59     3.00    92.65     0  03:10        2.48
  1101                 JUNCTION     0.30     1.52    98.51     0  03:10        1.35
  1102                 JUNCTION     1.27     7.00    72.18     0  03:05        6.13
  1103                 JUNCTION     0.61     6.42    73.15     0  03:05        5.18
  1104                 JUNCTION     1.29     5.52    73.60     0  03:05        4.22
  1105                 JUNCTION     0.70     1.50    87.90     0  03:10        1.39
  1106                 JUNCTION     0.47     1.75    88.51     0  03:10        1.55
  1107                 JUNCTION     0.23     1.99   111.11     0  03:10        1.44
  1108                 JUNCTION     0.92     7.00    20.25     0  02:53        4.80
  1109                 JUNCTION     2.23     7.00    97.42     0  02:52        2.67
  1110                 JUNCTION     0.09     0.44   101.55     0  03:10        0.42
  1113                 JUNCTION     0.75     1.43    93.53     0  03:10        1.24
  1114                 JUNCTION     0.12     0.59   106.71     0  03:10        0.55
  1115                 JUNCTION     0.15     0.83   109.33     0  03:10        0.75
  1116                 JUNCTION     0.26     1.75    88.50     0  03:10        1.55
  1117                 JUNCTION     0.11     0.63   103.80     0  03:10        0.58
  1118                 JUNCTION     0.12     0.67   110.63     0  03:10        0.61
  1119                 JUNCTION     0.47     3.80    88.43     0  03:10        3.49
  1120                 JUNCTION     0.31     2.84    90.70     0  03:10        2.26
  1121                 JUNCTION     0.19     1.04   111.29     0  03:10        0.99
  1122                 JUNCTION     0.23     1.38   121.07     0  03:10        1.27
  1123                 JUNCTION     0.36     2.18   122.12     0  03:10        1.99
  1124                 JUNCTION     0.18     1.00   124.73     0  03:10        0.93
  1125                 JUNCTION     0.21     1.29   125.67     0  03:10        1.17
  1126                 JUNCTION     0.18     1.16   128.41     0  03:10        0.99
  1127                 JUNCTION     0.30     1.98    84.00     0  03:10        1.82
  1128                 JUNCTION     0.17     0.93   100.93     0  03:10        0.88
  1129                 JUNCTION     0.19     1.08   118.78     0  03:10        1.01
  1130                 JUNCTION     0.18     1.06   122.32     0  03:10        0.98
  1131                 JUNCTION     0.17     0.98   126.15     0  03:10        0.90
  1132                 JUNCTION     0.11     0.64   133.42     0  03:10        0.59
  1133                 JUNCTION     0.16     0.89   104.54     0  03:10        0.83
  1134                 JUNCTION     0.18     1.02   126.19     0  03:10        0.92
  1135                 JUNCTION     0.15     0.86   134.11     0  03:10        0.77
  1136                 JUNCTION     0.77     6.94    52.55     0  03:10        6.74
  1137                 JUNCTION     0.29     1.69    64.71     0  03:10        1.61
  1138                 JUNCTION     0.16     1.03    68.53     0  03:10        0.92
  1139                 JUNCTION     0.13     0.76    82.01     0  03:10        0.70
  1140                 JUNCTION     0.10     0.56   112.00     0  03:10        0.52
  1141                 JUNCTION     0.11     0.73   114.79     0  03:10        0.65
  1142                 JUNCTION     0.04     0.25   127.32     0  03:10        0.23
  1143                 JUNCTION     1.68     6.48    68.75     0  03:05        6.36
  1144                 JUNCTION     1.13     7.00    70.11     0  03:05        6.94
  1145                 JUNCTION     0.90     6.57    70.97     0  03:10        6.44
  1146                 JUNCTION     0.17     1.07    90.96     0  03:10        0.94
  1147                 JUNCTION     0.15     0.91    97.98     0  03:10        0.82
  1148                 JUNCTION     0.14     0.83   117.36     0  03:10        0.74
  1149                 JUNCTION     0.21     1.33   118.09     0  03:10        1.14
  1150                 JUNCTION     0.70     6.66    72.45     0  03:05        5.46
  1151                 JUNCTION     0.59     6.21    72.86     0  03:05        4.98
  1152                 JUNCTION     0.33     4.38    73.49     0  03:05        3.15
  1153                 JUNCTION     0.13     0.72    87.71     0  03:10        0.66
  1154                 JUNCTION     0.12     0.71   109.29     0  03:10        0.64
  1155                 JUNCTION     0.81     7.00    54.31     0  03:09        6.84
  1156                 JUNCTION     0.49     2.66    66.52     0  03:10        2.47
  1157                 JUNCTION     0.41     2.45    86.19     0  03:10        2.33
  1158                 JUNCTION     0.47     2.29    87.46     0  03:10        2.11
  1160                 JUNCTION     5.77     7.00    93.50     0  02:51        6.58
  1161                 JUNCTION     0.17     1.10    90.82     0  03:10        0.97
  1162                 JUNCTION     0.00     0.00   121.34     0  00:00        0.00
  1163                 JUNCTION     0.17     0.96   115.65     0  03:10        0.88
  1164                 JUNCTION     0.63     5.26   122.80     0  03:10        3.51
  1165                 JUNCTION     1.17     6.91    34.45     0  02:52        6.66
  1166                 JUNCTION     1.10     6.71    34.47     0  02:52        6.42
  1167                 JUNCTION     5.99     7.00    93.25     0  02:51        6.71
  1169                 JUNCTION     1.12     5.84    28.47     0  03:10        5.37
  1170                 JUNCTION     0.28     2.26    24.39     0  03:10        1.98
  1171                 JUNCTION     0.21     2.00    24.03     0  02:53        1.38
  OFALL-10             OUTFALL      0.79     3.71     7.31     0  03:10        3.71
  
  
  *******************
  Node Inflow Summary
  *******************
  
  -------------------------------------------------------------------------------------------------
                                  Maximum  Maximum                  Lateral       Total        Flow
                                  Lateral    Total  Time of Max      Inflow      Inflow     Balance
                                   Inflow   Inflow   Occurrence      Volume      Volume       Error
  Node                 Type           CFS      CFS  days hr:min    10^6 gal    10^6 gal     Percent
  -------------------------------------------------------------------------------------------------
  1002                 JUNCTION      2.04   170.18     0  02:53       0.038        3.11      -0.002
  1003                 JUNCTION      0.00   178.50     0  03:10           0        3.11       0.001
  1004                 JUNCTION      0.00   164.28     0  03:10           0        2.95       0.000
  1005                 JUNCTION      0.00   155.58     0  02:53           0        2.79       0.001
  1006                 JUNCTION      0.00   195.29     0  03:10           0        3.18      -0.003
  1007                 JUNCTION      0.00   244.82     0  03:10           0         3.4      -0.001
  1008                 JUNCTION      0.00   270.23     0  03:10           0        3.45      -0.003
  1009                 JUNCTION      0.00   195.71     0  03:10           0        2.19       0.003
  1010                 JUNCTION      0.00   136.40     0  03:10           0        1.51      -0.001
  1011                 JUNCTION      0.00    90.55     0  03:10           0       0.995       0.007
  1012                 JUNCTION      0.00    34.53     0  03:10           0       0.372      -0.005
  1013                 JUNCTION      0.00    19.39     0  03:10           0       0.243       0.000
  1014                 JUNCTION      0.00    44.15     0  03:10           0       0.487       0.683
  1015                 JUNCTION      8.36     8.36     0  03:10      0.0965      0.0965       0.000
  1016                 JUNCTION      3.16     4.91     0  02:52      0.0341      0.0341       0.345
  1017                 JUNCTION      5.75     5.75     0  03:10       0.058       0.058       0.257
  1018                 JUNCTION      6.65     6.65     0  03:10       0.083       0.083       0.001
  1019                 JUNCTION      2.53     3.94     0  03:10      0.0269      0.0466      -0.025
  1020                 JUNCTION      5.96     5.96     0  03:10      0.0635      0.0635       0.183
  1021                 JUNCTION      3.94     3.94     0  03:10      0.0408      0.0408       0.287
  1026                 JUNCTION      0.59     0.59     0  03:10     0.00561     0.00561       0.040
  1027                 JUNCTION      2.47     2.47     0  03:10      0.0298      0.0298       0.091
  1028                 JUNCTION      6.68     6.68     0  03:10      0.0851      0.0851       0.071
  1030                 JUNCTION      3.82     3.82     0  03:10      0.0383      0.0383       0.001
  1031                 JUNCTION      0.44     0.44     0  03:10     0.00405     0.00411       0.678
  1032                 JUNCTION      5.34     5.34     0  03:10      0.0558      0.0558       0.003
  1033                 JUNCTION      4.91     4.91     0  03:10      0.0487      0.0487      -0.001
  1034                 JUNCTION      2.53     2.53     0  03:10      0.0248      0.0248       0.056
  1035                 JUNCTION      2.05     2.05     0  03:10      0.0203      0.0203       0.139
  1036                 JUNCTION      1.14     6.75     0  03:10      0.0113      0.0772       0.001
  1037                 JUNCTION      3.31     3.31     0  03:10      0.0367      0.0368       0.000
  1038                 JUNCTION      5.61     5.61     0  03:10      0.0658      0.0658       0.001
  1039                 JUNCTION      0.00     0.02     0  02:50           0    7.45e-05       0.040
  1041                 JUNCTION      4.16     4.16     0  03:10      0.0406      0.0406       0.027
  1042                 JUNCTION      6.16     6.16     0  03:10      0.0675      0.0675       0.015
  1043                 JUNCTION      6.89     6.89     0  03:10       0.074       0.074       0.000
  1044                 JUNCTION      4.49     4.49     0  03:10      0.0461      0.0461       0.142
  1045                 JUNCTION      4.06     4.06     0  03:10      0.0417      0.0417       0.047
  1046                 JUNCTION      0.73     0.73     0  03:10     0.00725     0.00725       0.013
  1047                 JUNCTION      0.00     0.33     0  02:47           0    0.000275      16.663
  1048                 JUNCTION      1.30     1.30     0  03:10      0.0141      0.0141       0.365
  1049                 JUNCTION      9.46     9.46     0  03:10       0.105       0.105       0.016
  1050                 JUNCTION      5.43     5.43     0  03:10      0.0561      0.0561       0.035
  1051                 JUNCTION      0.20     0.37     0  02:46     0.00185     0.00195       3.238
  1052                 JUNCTION      2.08     2.08     0  03:10      0.0251      0.0251       0.250
  1053                 JUNCTION      1.71    10.97     0  03:10      0.0174       0.118      -0.002
  1054                 JUNCTION      9.26     9.26     0  03:10       0.101       0.101      -0.000
  1057                 JUNCTION      4.11     4.11     0  03:10      0.0413      0.0413      -0.003
  1058                 JUNCTION      0.00     0.07     0  02:47           0    0.000171      -0.114
  1059                 JUNCTION      4.51     4.51     0  03:10      0.0455      0.0455       0.001
  1060                 JUNCTION      2.98     2.98     0  03:10      0.0294      0.0294      -0.005
  1061                 JUNCTION      4.13     4.13     0  03:10      0.0428      0.0428       0.001
  1062                 JUNCTION      5.67     5.67     0  03:10      0.0606      0.0606       0.009
  1063                 JUNCTION      6.98     6.98     0  03:10      0.0797      0.0798       0.080
  1064                 JUNCTION      1.67     1.67     0  03:10      0.0165      0.0165       0.317
  1065                 JUNCTION      3.77     3.77     0  03:10      0.0437      0.0437       0.072
  1066                 JUNCTION      0.00     0.05     0  02:50           0    0.000155       0.049
  1067                 JUNCTION      5.51     5.51     0  03:10      0.0633      0.0633       0.002
  1068                 JUNCTION      1.30     1.30     0  03:10      0.0125      0.0126       0.466
  1069                 JUNCTION      5.64     6.94     0  03:10       0.059      0.0716      -0.006
  1070                 JUNCTION      1.52     1.52     0  03:10      0.0161      0.0161       0.003
  1072                 JUNCTION      6.29     6.29     0  03:10      0.0622      0.0622       0.060
  1073                 JUNCTION     13.66    59.84     0  03:10       0.156       0.668      -0.012
  1074                 JUNCTION      6.00     6.00     0  03:10      0.0618      0.0619       0.244
  1075                 JUNCTION     10.87    10.87     0  03:10        0.13        0.13       0.004
  1076                 JUNCTION      1.60     1.60     0  03:10      0.0155      0.0155       0.439
  1077                 JUNCTION      1.19     1.19     0  03:10      0.0118      0.0118       0.486
  1078                 JUNCTION      4.20     4.20     0  03:10      0.0436      0.0436       0.045
  1079                 JUNCTION      2.27     2.27     0  03:10      0.0232      0.0232       0.219
  1080                 JUNCTION      1.43     1.43     0  03:10      0.0142      0.0143       0.770
  1081                 JUNCTION      8.26     9.70     0  03:10      0.0981       0.112       0.016
  1082                 JUNCTION      4.92     4.92     0  03:10      0.0517      0.0517       0.047
  1084                 JUNCTION      0.00   195.72     0  03:10           0         2.3      -0.002
  1085                 JUNCTION      4.93    10.08     0  03:10      0.0467       0.113       0.009
  1086                 JUNCTION      6.91     6.91     0  03:10      0.0747      0.0748      -0.002
  1087                 JUNCTION      1.93    10.59     0  03:10      0.0192      0.0464       0.168
  1088                 JUNCTION      2.76     2.76     0  03:10        0.03        0.03       0.001
  1089                 JUNCTION     11.42    11.42     0  03:10       0.121       0.121       0.030
  1090                 JUNCTION      1.31     1.31     0  03:10      0.0127      0.0127      -0.001
  1091                 JUNCTION      8.22     8.22     0  03:10      0.0828      0.0828       0.024
  1092                 JUNCTION      2.24     2.24     0  03:10       0.023       0.023       0.299
  1093                 JUNCTION      1.48     1.48     0  03:10      0.0149      0.0149      -0.006
  1094                 JUNCTION      1.24    12.25     0  03:10      0.0122       0.125      -0.004
  1095                 JUNCTION      6.12     6.12     0  03:10      0.0617      0.0617       0.000
  1096                 JUNCTION      1.87     1.87     0  03:10      0.0193      0.0193       0.304
  1097                 JUNCTION      6.06     6.06     0  03:10      0.0735      0.0736       0.097
  1098                 JUNCTION     17.98    17.98     0  03:10       0.201       0.201       0.061
  1099                 JUNCTION      3.43     6.23     0  03:10      0.0354      0.0388       0.092
  1100                 JUNCTION     10.56    10.56     0  03:10       0.113       0.113       0.021
  1101                 JUNCTION      5.09     5.09     0  03:10      0.0533      0.0533       0.012
  1102                 JUNCTION      2.22     2.22     0  03:10      0.0218      0.0218       0.288
  1103                 JUNCTION      5.81     5.81     0  03:10      0.0601      0.0601      -0.017
  1104                 JUNCTION      1.78     1.78     0  03:10      0.0174      0.0174       0.552
  1105                 JUNCTION      2.26     2.26     0  03:10      0.0226      0.0226       0.249
  1106                 JUNCTION      6.35     6.35     0  03:10      0.0695      0.0695       0.033
  1107                 JUNCTION     10.12    10.12     0  03:10       0.107       0.107      -0.001
  1108                 JUNCTION      2.03   171.58     0  02:53      0.0197        3.07      -0.002
  1109                 JUNCTION      0.00    23.33     0  02:52           0       0.198       3.834
  1110                 JUNCTION      0.00     6.65     0  03:10           0       0.083      -0.252
  1113                 JUNCTION      0.00    19.53     0  03:10           0       0.225       0.712
  1114                 JUNCTION      0.00     9.73     0  03:10           0        0.12      -0.068
  1115                 JUNCTION      0.00     6.68     0  03:10           0       0.085      -0.002
  1116                 JUNCTION      0.00    28.82     0  03:10           0       0.306      -0.004
  1117                 JUNCTION      0.00    14.60     0  03:10           0       0.159       0.015
  1118                 JUNCTION      0.00    10.05     0  03:10           0       0.114       0.000
  1119                 JUNCTION      0.00    54.31     0  03:10           0       0.597      -0.001
  1120                 JUNCTION      0.00    50.51     0  03:10           0       0.557       0.001
  1121                 JUNCTION      0.00    37.85     0  03:10           0       0.415       0.008
  1122                 JUNCTION      0.00    29.65     0  03:10           0       0.328       0.003
  1123                 JUNCTION      0.00    29.09     0  03:10           0        0.32       0.001
  1124                 JUNCTION      0.00    18.48     0  03:10           0       0.201      -0.005
  1125                 JUNCTION      0.00    12.98     0  03:10           0       0.143       0.012
  1126                 JUNCTION      0.00    10.97     0  03:10           0       0.118      -0.013
  1127                 JUNCTION      0.00    42.71     0  03:10           0       0.469      -0.005
  1128                 JUNCTION      0.00    35.46     0  03:10           0       0.394       0.002
  1129                 JUNCTION      0.00    25.93     0  03:10           0       0.291       0.009
  1130                 JUNCTION      0.00    17.47     0  03:10           0       0.195       0.005
  1131                 JUNCTION      0.00    13.88     0  03:10           0       0.151       0.010
  1132                 JUNCTION      0.00     8.45     0  03:10           0      0.0876      -0.025
  1133                 JUNCTION      0.00    34.16     0  03:10           0       0.388       0.015
  1134                 JUNCTION      0.00    20.97     0  03:10           0       0.231      -0.007
  1135                 JUNCTION      0.00    14.61     0  03:10           0       0.164      -0.001
  1136                 JUNCTION      0.00    88.40     0  03:10           0        1.18      -0.004
  1137                 JUNCTION      0.00    88.44     0  03:10           0        1.17      -0.003
  1138                 JUNCTION      0.00    27.12     0  03:10           0       0.284      -0.007
  1139                 JUNCTION      0.00    24.45     0  03:10           0       0.254       0.007
  1140                 JUNCTION      0.00    13.15     0  03:10           0       0.133      -0.001
  1141                 JUNCTION      0.00     9.67     0  03:10           0      0.0976      -0.002
  1142                 JUNCTION      0.00     1.47     0  03:10           0      0.0149       0.020
  1143                 JUNCTION      0.00    61.36     0  03:10           0       0.884       0.163
  1144                 JUNCTION      0.00    60.96     0  03:10           0       0.695       0.012
  1145                 JUNCTION      0.00    35.58     0  03:10           0         0.4       0.004
  1146                 JUNCTION      0.00    35.59     0  03:10           0       0.372      -0.007
  1147                 JUNCTION      0.00    25.20     0  03:10           0       0.259       0.007
  1148                 JUNCTION      0.00    20.20     0  03:10           0       0.206      -0.006
  1149                 JUNCTION      0.00     7.98     0  03:10           0       0.081      -0.001
  1150                 JUNCTION      0.00    28.36     0  03:10           0       0.299      -0.058
  1151                 JUNCTION      0.00    26.14     0  03:10           0       0.277      -0.000
  1152                 JUNCTION      0.00    20.34     0  03:10           0       0.217      -0.007
  1153                 JUNCTION      0.00    18.66     0  03:10           0       0.199       0.002
  1154                 JUNCTION      0.00    10.12     0  03:10           0       0.107      -0.012
  1155                 JUNCTION      1.44     3.51     0  03:10      0.0139      0.0151       0.008
  1156                 JUNCTION      1.65     1.65     0  03:10      0.0162      0.0162       0.056
  1157                 JUNCTION      2.19     2.19     0  03:10      0.0258      0.0258       0.002
  1158                 JUNCTION      1.85     1.85     0  03:10        0.02        0.02       0.060
  1160                 JUNCTION      0.00    24.92     0  03:10           0       0.296       3.738
  1161                 JUNCTION      0.00    24.72     0  03:10           0       0.263      -0.006
  1162                 JUNCTION      0.00     0.00     0  00:00           0           0       0.000 gal
  1163                 JUNCTION      0.00    22.05     0  03:10           0       0.242       0.010
  1164                 JUNCTION     11.01    11.01     0  03:10       0.113       0.113       0.013
  1165                 JUNCTION      7.09     7.09     0  03:10      0.0785      0.0785      -0.022
  1166                 JUNCTION      2.30     2.30     0  03:10      0.0236      0.0236      -0.049
  1167                 JUNCTION      2.60     2.60     0  03:10      0.0305      0.0305       0.497
  1169                 JUNCTION     14.06    14.06     0  03:10       0.157       0.157       0.009
  1170                 JUNCTION     12.19    12.19     0  03:10       0.134       0.134       0.001
  1171                 JUNCTION      2.05     2.05     0  03:10      0.0237      0.0237       0.016
  OFALL-10             OUTFALL       0.00   169.86     0  03:10           0        3.11       0.000
  
  
  **********************
  Node Surcharge Summary
  **********************
  
  Surcharging occurs when water rises above the top of the highest conduit.
  ---------------------------------------------------------------------
                                               Max. Height   Min. Depth
                                   Hours       Above Crown    Below Rim
  Node                 Type      Surcharged           Feet         Feet
  ---------------------------------------------------------------------
  1002                 JUNCTION        0.49          3.000        0.000
  1003                 JUNCTION        0.47          3.000        0.000
  1004                 JUNCTION        0.11          0.086        2.914
  1005                 JUNCTION        0.50          2.872        0.128
  1006                 JUNCTION        0.47          3.000        0.000
  1007                 JUNCTION        0.44          3.000        0.000
  1008                 JUNCTION        0.22          3.000        0.000
  1013                 JUNCTION       21.03          4.000        0.000
  1014                 JUNCTION       21.05          4.000        0.000
  1015                 JUNCTION       21.05          5.750        0.000
  1016                 JUNCTION       21.03          5.750        0.000
  1017                 JUNCTION       21.05          5.750        0.000
  1020                 JUNCTION       21.07          1.223        4.527
  1021                 JUNCTION       21.04          0.912        4.838
  1028                 JUNCTION        0.67          1.050        4.700
  1030                 JUNCTION        0.25          0.691        5.059
  1031                 JUNCTION        0.40          0.788        4.962
  1032                 JUNCTION        0.08          0.181        5.569
  1036                 JUNCTION        0.09          0.324        5.426
  1037                 JUNCTION        0.11          0.143        5.607
  1038                 JUNCTION        0.01          0.089        5.661
  1041                 JUNCTION        0.56          2.993        2.757
  1042                 JUNCTION        0.43          2.154        3.596
  1043                 JUNCTION        0.15          1.592        4.158
  1044                 JUNCTION        0.59          0.859        4.891
  1045                 JUNCTION        0.19          0.273        5.477
  1046                 JUNCTION        0.04          0.070        5.680
  1047                 JUNCTION        0.39          0.545        5.205
  1048                 JUNCTION        0.69          1.491        4.259
  1049                 JUNCTION        0.57          2.362        3.388
  1050                 JUNCTION        0.29          0.448        5.302
  1051                 JUNCTION        0.44          0.353        5.397
  1052                 JUNCTION        0.56          0.777        4.973
  1053                 JUNCTION        0.37          1.822        3.928
  1054                 JUNCTION        0.27          2.774        2.976
  1057                 JUNCTION        0.34          0.717        5.033
  1058                 JUNCTION        0.14          0.432        5.318
  1062                 JUNCTION        0.14          0.283        5.467
  1063                 JUNCTION        0.56          1.103        4.647
  1064                 JUNCTION        0.44          0.437        5.313
  1065                 JUNCTION        0.22          0.350        5.400
  1067                 JUNCTION        0.11          0.254        5.496
  1068                 JUNCTION        0.45          0.503        5.247
  1072                 JUNCTION        0.68          4.162        1.588
  1073                 JUNCTION        0.13          1.848        2.652
  1074                 JUNCTION       21.13          5.381        0.369
  1075                 JUNCTION        0.43          1.528        4.222
  1076                 JUNCTION        0.51          0.422        5.328
  1077                 JUNCTION        0.37          0.356        5.394
  1078                 JUNCTION        0.17          0.269        5.481
  1079                 JUNCTION        0.38          0.408        5.342
  1080                 JUNCTION        1.22          1.495        4.255
  1081                 JUNCTION        0.18          0.410        5.090
  1082                 JUNCTION        0.28          0.465        5.285
  1084                 JUNCTION        0.15          2.994        0.006
  1085                 JUNCTION        0.65          5.750        0.000
  1086                 JUNCTION        0.62          5.750        0.000
  1087                 JUNCTION        5.95          5.750        0.000
  1089                 JUNCTION        0.60          2.234        3.516
  1091                 JUNCTION        0.45          0.974        4.776
  1092                 JUNCTION        0.38          0.339        5.411
  1094                 JUNCTION        0.18          1.690        4.060
  1096                 JUNCTION        0.50          0.743        5.007
  1097                 JUNCTION       21.12          5.750        0.000
  1098                 JUNCTION        1.64          5.750        0.000
  1099                 JUNCTION        0.64          5.750        0.000
  1100                 JUNCTION        0.53          1.754        3.996
  1101                 JUNCTION        0.13          0.267        5.483
  1102                 JUNCTION        0.60          5.750        0.000
  1103                 JUNCTION        0.39          5.168        0.582
  1104                 JUNCTION        0.86          4.274        1.476
  1105                 JUNCTION        0.27          0.253        5.497
  1106                 JUNCTION        0.35          0.504        5.246
  1107                 JUNCTION        0.12          0.740        5.010
  1108                 JUNCTION        0.43          3.000        0.000
  1109                 JUNCTION        0.45          4.500        0.000
  1119                 JUNCTION        0.14          1.301        3.199
  1120                 JUNCTION        0.02          0.339        4.161
  1136                 JUNCTION        0.24          3.942        0.058
  1143                 JUNCTION        0.59          3.483        0.517
  1144                 JUNCTION        0.51          4.000        0.000
  1145                 JUNCTION        0.47          4.069        0.431
  1150                 JUNCTION        0.34          4.159        0.341
  1151                 JUNCTION        0.31          3.708        0.792
  1152                 JUNCTION        0.14          2.380        2.620
  1155                 JUNCTION        0.60          5.750        0.000
  1156                 JUNCTION        0.50          1.408        4.342
  1157                 JUNCTION        0.49          1.196        4.554
  1158                 JUNCTION        0.47          1.039        4.711
  1160                 JUNCTION       21.04          4.000        0.000
  1164                 JUNCTION        0.51          4.008        1.742
  1165                 JUNCTION        0.55          4.915        0.085
  1166                 JUNCTION        0.61          5.463        0.287
  1167                 JUNCTION       21.09          5.750        0.000
  1169                 JUNCTION        0.67          4.344        1.156
  1170                 JUNCTION        0.34          0.758        4.742
  1171                 JUNCTION        0.39          0.754        4.996
  
  
  *********************
  Node Flooding Summary
  *********************
  
  Flooding refers to all water that overflows a node, whether it ponds or not.
  --------------------------------------------------------------------------
                                                             Total   Maximum
                                 Maximum   Time of Max       Flood    Ponded
                        Hours       Rate    Occurrence      Volume     Depth
  Node                 Flooded       CFS   days hr:min    10^6 gal      Feet
  --------------------------------------------------------------------------
  1002                    0.01      5.96      0  02:52       0.000     0.000
  1003                    0.36     12.71      0  03:10       0.054     0.000
  1006                    0.43     45.08      0  03:10       0.390     0.000
  1007                    0.30     58.92      0  03:11       0.321     0.000
  1008                    0.10     25.40      0  03:10       0.046     0.000
  1013                    0.01     17.62      0  02:51       0.000     0.000
  1014                   21.02     44.15      0  03:10       0.472     0.000
  1015                    0.01      4.02      0  02:52       0.000     0.000
  1016                    0.01      4.86      0  02:52       0.000     0.000
  1017                    0.01      0.25      0  02:51       0.000     0.000
  1085                    0.10     10.08      0  03:10       0.015     0.000
  1086                    0.13      4.36      0  03:10       0.011     0.000
  1087                    0.14     10.59      0  03:10       0.033     0.000
  1097                    0.18      5.32      0  03:10       0.016     0.000
  1098                    0.36     13.68      0  03:10       0.066     0.000
  1099                    0.11      6.23      0  03:10       0.011     0.000
  1102                    0.01      0.63      0  03:05       0.000     0.000
  1108                    0.01      4.41      0  02:53       0.000     0.000
  1109                    0.01     20.63      0  02:52       0.000     0.000
  1144                    0.07      4.75      0  03:10       0.004     0.000
  1155                    0.04      3.51      0  03:10       0.002     0.000
  1160                    0.01     10.98      0  02:51       0.000     0.000
  1167                    0.01      0.54      0  02:51       0.000     0.000
  
  
  ***********************
  Outfall Loading Summary
  ***********************
  
  -----------------------------------------------------------
                         Flow       Avg       Max       Total
                         Freq      Flow      Flow      Volume
  Outfall Node           Pcnt       CFS       CFS    10^6 gal
  -----------------------------------------------------------
  OFALL-10              91.98     35.55    169.86       3.112
  -----------------------------------------------------------
  System                91.98     35.55    169.86       3.112
  
  
  ********************
  Link Flow Summary
  ********************
  
  -----------------------------------------------------------------------------
                                 Maximum  Time of Max   Maximum    Max/    Max/
                                  |Flow|   Occurrence   |Veloc|    Full    Full
  Link                 Type          CFS  days hr:min    ft/sec    Flow   Depth
  -----------------------------------------------------------------------------
  2000                 CONDUIT    169.86     0  03:10     13.90    1.02    0.96
  2002                 CONDUIT    169.40     0  02:53     13.48    0.57    1.00
  2003                 CONDUIT    170.02     0  02:53     13.56    0.93    1.00
  2004                 CONDUIT    164.27     0  03:10     13.34    0.38    1.00
  2005                 CONDUIT    155.58     0  02:53     13.00    1.43    1.00
  2006                 CONDUIT    155.58     0  02:53     12.38    0.67    1.00
  2007                 CONDUIT    185.91     0  03:08     14.79    0.59    1.00
  2008                 CONDUIT    244.82     0  03:10     19.48    0.67    1.00
  2009                 CONDUIT    190.60     0  03:10     15.17    0.45    1.00
  2010                 CONDUIT    195.72     0  03:10     18.27    0.45    0.81
  2011                 CONDUIT    136.37     0  03:10     20.34    0.34    0.54
  2012                 CONDUIT     90.41     0  03:10     13.47    0.42    0.53
  2013                 CONDUIT     34.18     0  03:10      6.04    0.63    0.75
  2014                 CONDUIT      3.92     0  03:10      3.88    0.02    0.40
  2015                 CONDUIT      8.32     0  03:10      1.87    0.19    1.00
  2016                 CONDUIT      2.20     0  03:10      1.79    0.48    1.00
  2017                 CONDUIT     24.92     0  03:10      3.53    0.35    1.00
  2018                 CONDUIT     16.71     0  03:10      3.76    0.16    1.00
  2019                 CONDUIT      5.75     0  03:10      6.04    0.44    1.00
  2020                 CONDUIT      8.36     0  03:10      6.82    1.02    1.00
  2021                 CONDUIT      3.26     0  02:52      2.65    0.37    1.00
  2022                 CONDUIT      5.19     0  03:10      4.14    0.07    0.59
  2023                 CONDUIT      1.42     0  03:10      4.62    0.16    0.30
  2024                 CONDUIT      6.65     0  03:10      7.91    0.64    0.65
  2026                 CONDUIT     19.39     0  03:10      8.34    0.19    0.79
  2027                 CONDUIT      3.94     0  03:10      3.21    0.29    1.00
  2028                 CONDUIT      5.96     0  03:10      4.85    0.52    1.00
  2029                 CONDUIT      9.68     0  03:10      7.32    0.19    0.50
  2030                 CONDUIT      2.47     0  03:10      2.68    0.27    0.70
  2031                 CONDUIT      0.59     0  03:10      1.49    0.21    0.49
  2032                 CONDUIT      6.67     0  03:10      9.34    0.55    0.56
  2033                 CONDUIT      6.68     0  03:10      6.13    0.54    0.83
  2034                 CONDUIT      1.84     0  03:10      1.50    0.31    1.00
  2038                 CONDUIT     28.82     0  03:10      7.12    0.40    0.77
  2039                 CONDUIT      3.82     0  03:10      3.12    1.42    1.00
  2040                 CONDUIT      0.44     0  03:10      1.55    0.06    1.00
  2041                 CONDUIT     24.64     0  03:10      8.55    0.21    0.57
  2042                 CONDUIT      5.34     0  03:10      4.47    0.95    0.94
  2043                 CONDUIT      4.90     0  03:10      4.90    0.45    0.79
  2044                 CONDUIT     14.55     0  03:10      9.70    0.14    0.34
  2045                 CONDUIT      2.05     0  03:10      2.23    0.19    0.70
  2046                 CONDUIT      2.53     0  03:10      2.82    0.46    0.69
  2047                 CONDUIT     10.04     0  03:10     11.44    0.20    0.32
  2048                 CONDUIT      3.30     0  03:10      3.27    0.32    0.77
  2049                 CONDUIT      0.02     0  02:50      0.05    0.00    0.74
  2050                 CONDUIT      6.75     0  03:10      6.69    2.16    0.77
  2051                 CONDUIT      5.61     0  03:10      4.57    0.50    1.00
  2052                 CONDUIT      2.19     0  03:10      1.78    1.13    1.00
  2053                 CONDUIT     54.31     0  03:10     11.15    0.65    0.98
  2054                 CONDUIT      4.16     0  03:10      3.39    0.92    1.00
  2055                 CONDUIT     50.38     0  03:10     10.26    0.44    1.00
  2056                 CONDUIT      6.15     0  03:10      5.01    1.10    1.00
  2057                 CONDUIT      6.89     0  03:10      5.61    0.57    1.00
  2058                 CONDUIT     37.80     0  03:10     12.11    0.36    0.71
  2059                 CONDUIT      4.06     0  03:10      3.45    0.46    0.92
  2060                 CONDUIT      4.49     0  03:10      3.81    0.34    0.92
  2061                 CONDUIT     29.64     0  03:10     14.90    0.64    0.61
  2062                 CONDUIT      0.72     0  03:10      2.03    0.16    1.00
  2063                 CONDUIT      0.33     0  02:47      2.03    0.04    1.00
  2064                 CONDUIT     28.95     0  03:10      7.74    0.89    0.71
  2065                 CONDUIT      1.30     0  03:10      1.06    0.14    1.00
  2066                 CONDUIT      9.45     0  03:10      7.70    1.29    1.00
  2067                 CONDUIT     18.45     0  03:10      5.60    0.34    0.64
  2068                 CONDUIT      5.43     0  03:10      4.67    0.62    0.90
  2069                 CONDUIT      0.32     0  02:46      1.32    0.03    0.90
  2070                 CONDUIT     12.97     0  03:10      6.97    0.45    0.57
  2071                 CONDUIT      2.08     0  03:10      1.69    0.18    1.00
  2072                 CONDUIT     10.93     0  03:10      7.09    0.79    0.82
  2073                 CONDUIT     10.97     0  03:10      9.06    2.89    0.96
  2074                 CONDUIT      9.26     0  03:10      7.55    1.03    1.00
  2075                 CONDUIT      4.11     0  03:10      3.40    0.81    1.00
  2077                 CONDUIT     42.62     0  03:10     10.61    0.46    0.76
  2078                 CONDUIT      4.49     0  03:10      5.81    0.24    0.85
  2079                 CONDUIT      2.96     0  03:10      3.98    0.24    0.91
  2080                 CONDUIT      0.07     0  02:47      0.44    0.01    1.00
  2081                 CONDUIT     35.41     0  03:10     11.94    0.30    0.58
  2082                 CONDUIT      5.68     0  03:10      5.00    1.30    0.87
  2083                 CONDUIT      4.13     0  03:10      4.01    0.59    0.78
  2084                 CONDUIT     25.89     0  03:10     16.37    0.48    0.50
  2085                 CONDUIT      1.67     0  03:10      1.40    0.11    0.93
  2086                 CONDUIT      6.96     0  03:10      5.85    0.74    0.93
  2087                 CONDUIT      0.05     0  02:50      0.07    0.00    0.99
  2088                 CONDUIT     17.46     0  03:10     10.21    0.41    0.54
  2089                 CONDUIT      3.77     0  03:10      3.19    0.35    0.92
  2090                 CONDUIT      0.00     0  00:00      0.00    0.00    0.50
  2091                 CONDUIT     13.80     0  03:10      8.57    0.40    0.51
  2092                 CONDUIT      5.51     0  03:10      4.78    1.70    0.89
  2093                 CONDUIT      8.40     0  03:10      7.03    0.22    0.41
  2094                 CONDUIT      1.52     0  03:10      2.29    0.34    0.53
  2095                 CONDUIT      6.93     0  03:10      6.17    0.91    0.61
  2096                 CONDUIT      1.30     0  03:10      1.95    0.15    0.97
  2097                 CONDUIT      1.65     0  03:10      1.35    0.26    1.00
  2098                 CONDUIT     59.85     0  03:10     12.20    0.83    1.00
  2099                 CONDUIT      6.29     0  03:10      5.13    0.67    1.00
  2100                 CONDUIT      6.00     0  03:10      4.89    0.40    1.00
  2101                 CONDUIT     34.12     0  03:10      9.64    0.27    0.68
  2102                 CONDUIT     10.87     0  03:10      9.74    2.55    0.85
  2103                 CONDUIT      1.60     0  03:10      1.44    0.13    0.85
  2104                 CONDUIT     22.01     0  03:10     15.50    0.38    0.46
  2105                 CONDUIT      1.19     0  03:10      1.04    0.11    0.89
  2106                 CONDUIT     20.90     0  03:10     13.49    0.44    0.49
  2107                 CONDUIT      4.20     0  03:10      3.59    0.39    0.91
  2108                 CONDUIT      2.27     0  03:10      1.94    0.22    0.91
  2109                 CONDUIT     14.56     0  03:10     10.07    0.35    0.47
  2110                 CONDUIT      9.70     0  03:10      6.50    1.02    0.79
  2111                 CONDUIT      1.43     0  03:10      2.42    0.13    1.00
  2112                 CONDUIT      4.92     0  03:10      4.45    0.74    0.84
  2113                 CONDUIT     79.64     0  03:05     11.27    0.50    1.00
  2114                 CONDUIT      8.77     0  03:10      7.14    0.55    1.00
  2115                 CONDUIT     88.40     0  03:10     15.28    0.44    0.78
  2116                 CONDUIT      9.28     0  03:06      7.57    1.89    1.00
  2117                 CONDUIT      5.38     0  03:06      4.38    1.37    1.00
  2118                 CONDUIT     27.12     0  03:10     11.14    0.23    0.54
  2119                 CONDUIT      2.76     0  03:10      3.49    0.28    0.67
  2120                 CONDUIT     24.40     0  03:10     15.45    0.18    0.36
  2121                 CONDUIT     11.42     0  03:10     10.79    0.81    0.81
  2122                 CONDUIT     13.10     0  03:10     12.54    0.11    0.27
  2123                 CONDUIT      9.62     0  03:10     10.95    0.17    0.32
  2124                 CONDUIT      1.31     0  03:10      3.27    0.16    0.40
  2125                 CONDUIT      2.24     0  03:10      2.35    0.17    0.73
  2126                 CONDUIT      8.21     0  03:10      7.89    0.82    0.79
  2127                 CONDUIT      1.46     0  03:10      2.94    0.06    0.33
  2128                 CONDUIT      1.47     0  03:10      6.22    0.12    0.25
  2129                 CONDUIT     61.36     0  03:10     10.40    1.58    0.78
  2130                 CONDUIT      4.37     0  03:14      3.56    0.38    1.00
  2132                 CONDUIT     56.23     0  03:10      7.95    0.76    1.00
  2133                 CONDUIT     32.70     0  03:10      6.88    0.37    1.00
  2134                 CONDUIT      2.88     0  03:10      2.35    0.18    1.00
  2135                 CONDUIT      9.66     0  03:17      7.87    1.71    1.00
  2136                 CONDUIT     35.58     0  03:10     13.75    0.52    0.77
  2137                 CONDUIT     10.56     0  03:10      8.90    1.43    0.93
  2138                 CONDUIT     25.18     0  03:10     13.90    0.21    0.40
  2139                 CONDUIT      5.09     0  03:10      4.52    1.32    0.86
  2140                 CONDUIT     20.16     0  03:10     15.36    0.33    0.44
  2141                 CONDUIT     12.25     0  03:10     11.23    1.03    0.83
  2142                 CONDUIT      7.98     0  03:10      5.87    1.00    0.72
  2143                 CONDUIT      1.87     0  03:10      2.32    0.12    1.00
  2144                 CONDUIT      6.12     0  03:10      5.54    0.44    0.84
  2145                 CONDUIT     28.38     0  03:10      5.78    0.68    1.00
  2146                 CONDUIT     26.16     0  03:10      6.66    0.30    1.00
  2147                 CONDUIT      5.81     0  03:10      4.74    0.92    1.00
  2148                 CONDUIT      2.22     0  03:10      1.81    0.23    1.00
  2149                 CONDUIT     20.35     0  03:10      7.54    0.32    1.00
  2150                 CONDUIT      1.78     0  03:10      1.45    0.13    1.00
  2151                 CONDUIT     18.59     0  03:10     13.48    0.28    0.68
  2152                 CONDUIT      6.35     0  03:10      6.13    0.70    0.79
  2153                 CONDUIT      2.26     0  03:10      2.18    0.21    0.79
  2154                 CONDUIT     10.08     0  03:10     13.86    0.58    0.57
  2155                 CONDUIT     10.12     0  03:10      9.79    0.78    0.79
  2156                 CONDUIT     11.01     0  03:10      8.97    2.33    1.00
  2157                 CONDUIT      7.09     0  03:10      3.64    0.25    1.00
  2158                 CONDUIT      2.30     0  03:10      3.12    0.20    1.00
  2159                 CONDUIT      2.60     0  03:10      2.44    0.36    1.00
  2162                 CONDUIT     14.06     0  03:10      7.96    1.42    1.00
  2163                 CONDUIT     12.19     0  03:10     12.77    0.22    1.00
  2164                 CONDUIT      2.05     0  03:10      2.55    0.06    1.00
  2200                 CONDUIT     11.08     0  03:10      1.91    0.26    1.00
  
  
  ***************************
  Flow Classification Summary
  ***************************
  
  -------------------------------------------------------------------------------------
                      Adjusted    ---------- Fraction of Time in Flow Class ---------- 
                       /Actual         Up    Down  Sub   Sup   Up    Down  Norm  Inlet 
  Conduit               Length    Dry  Dry   Dry   Crit  Crit  Crit  Crit  Ltd   Ctrl  
  -------------------------------------------------------------------------------------
  2000                    1.00   0.12  0.00  0.00  0.02  0.87  0.00  0.00  0.00  0.00
  2002                    1.00   0.12  0.00  0.00  0.28  0.61  0.00  0.00  0.84  0.00
  2003                    1.00   0.12  0.00  0.00  0.02  0.87  0.00  0.00  0.00  0.00
  2004                    1.00   0.12  0.00  0.00  0.02  0.87  0.00  0.00  0.84  0.00
  2005                    1.00   0.12  0.00  0.00  0.40  0.48  0.00  0.00  0.00  0.00
  2006                    1.00   0.12  0.00  0.00  0.57  0.32  0.00  0.00  0.84  0.00
  2007                    1.00   0.12  0.00  0.00  0.02  0.86  0.00  0.00  0.80  0.00
  2008                    1.00   0.12  0.00  0.00  0.01  0.87  0.00  0.00  0.78  0.00
  2009                    1.00   0.12  0.00  0.00  0.01  0.88  0.00  0.00  0.81  0.00
  2010                    1.00   0.12  0.00  0.00  0.00  0.88  0.00  0.00  0.64  0.00
  2011                    1.00   0.12  0.00  0.00  0.00  0.88  0.00  0.00  0.85  0.00
  2012                    1.00   0.12  0.00  0.00  0.00  0.88  0.00  0.00  0.00  0.00
  2013                    1.00   0.12  0.00  0.00  0.88  0.00  0.00  0.00  0.84  0.00
  2014                    1.00   0.12  0.05  0.00  0.84  0.00  0.00  0.00  0.88  0.00
  2015                    1.00   0.12  0.00  0.00  0.88  0.00  0.00  0.00  0.00  0.00
  2016                    1.00   0.12  0.00  0.00  0.88  0.00  0.00  0.00  0.02  0.00
  2017                    1.00   0.12  0.00  0.00  0.88  0.00  0.00  0.00  0.00  0.00
  2018                    1.00   0.12  0.00  0.00  0.88  0.00  0.00  0.00  0.00  0.00
  2019                    1.00   0.12  0.00  0.00  0.88  0.00  0.00  0.00  0.00  0.00
  2020                    1.00   0.12  0.00  0.00  0.88  0.00  0.00  0.00  0.00  0.00
  2021                    1.00   0.12  0.00  0.00  0.88  0.00  0.00  0.00  0.00  0.00
  2022                    1.00   0.12  0.00  0.00  0.88  0.00  0.00  0.00  0.88  0.00
  2023                    1.00   0.12  0.00  0.00  0.21  0.68  0.00  0.00  0.00  0.00
  2024                    1.00   0.12  0.00  0.00  0.00  0.88  0.00  0.00  0.00  0.00
  2026                    1.00   0.12  0.00  0.00  0.88  0.00  0.00  0.00  0.00  0.00
  2027                    1.00   0.12  0.00  0.00  0.88  0.00  0.00  0.00  0.00  0.00
  2028                    1.00   0.12  0.00  0.00  0.88  0.00  0.00  0.00  0.00  0.00
  2029                    1.00   0.12  0.00  0.00  0.85  0.03  0.00  0.00  0.88  0.00
  2030                    1.00   0.12  0.00  0.00  0.88  0.00  0.00  0.00  0.00  0.00
  2031                    1.00   0.12  0.00  0.00  0.88  0.00  0.00  0.00  0.00  0.00
  2032                    1.00   0.12  0.00  0.00  0.00  0.88  0.00  0.00  0.00  0.00
  2033                    1.00   0.12  0.00  0.00  0.88  0.00  0.00  0.00  0.00  0.00
  2034                    1.00   0.12  0.00  0.00  0.88  0.00  0.00  0.00  0.02  0.00
  2038                    1.00   0.12  0.00  0.00  0.68  0.20  0.00  0.00  0.84  0.00
  2039                    1.00   0.12  0.00  0.00  0.88  0.00  0.00  0.00  0.80  0.00
  2040                    1.00   0.12  0.00  0.00  0.88  0.00  0.00  0.00  0.03  0.00
  2041                    1.00   0.12  0.00  0.00  0.00  0.88  0.00  0.00  0.83  0.00
  2042                    1.00   0.12  0.00  0.00  0.88  0.00  0.00  0.00  0.20  0.00
  2043                    1.00   0.12  0.00  0.00  0.86  0.02  0.00  0.00  0.83  0.00
  2044                    1.00   0.12  0.00  0.00  0.00  0.88  0.00  0.00  0.88  0.00
  2045                    1.00   0.12  0.00  0.00  0.88  0.00  0.00  0.00  0.00  0.00
  2046                    1.00   0.12  0.00  0.00  0.88  0.00  0.00  0.00  0.00  0.00
  2047                    1.00   0.12  0.00  0.00  0.00  0.88  0.00  0.00  0.00  0.00
  2048                    1.00   0.12  0.00  0.00  0.88  0.00  0.00  0.00  0.00  0.00
  2049                    1.00   0.12  0.85  0.00  0.03  0.00  0.00  0.00  0.86  0.00
  2050                    1.00   0.12  0.00  0.00  0.79  0.10  0.00  0.00  0.00  0.00
  2051                    1.00   0.12  0.00  0.00  0.83  0.06  0.00  0.00  0.84  0.00
  2052                    1.00   0.12  0.00  0.00  0.88  0.00  0.00  0.00  0.00  0.00
  2053                    1.00   0.12  0.00  0.00  0.01  0.88  0.00  0.00  0.80  0.00
  2054                    1.00   0.12  0.00  0.00  0.88  0.00  0.00  0.00  0.00  0.00
  2055                    1.00   0.12  0.00  0.00  0.00  0.88  0.00  0.00  0.82  0.00
  2056                    1.00   0.12  0.00  0.00  0.88  0.00  0.00  0.00  0.00  0.00
  2057                    1.00   0.12  0.00  0.00  0.87  0.02  0.00  0.00  0.84  0.00
  2058                    1.00   0.12  0.00  0.00  0.00  0.88  0.00  0.00  0.88  0.00
  2059                    1.00   0.12  0.00  0.00  0.88  0.00  0.00  0.00  0.00  0.00
  2060                    1.00   0.12  0.00  0.00  0.88  0.00  0.00  0.00  0.00  0.00
  2061                    1.00   0.12  0.00  0.00  0.00  0.88  0.00  0.00  0.00  0.00
  2062                    1.00   0.12  0.00  0.00  0.88  0.00  0.00  0.00  0.80  0.00
  2063                    1.00   0.12  0.00  0.00  0.88  0.00  0.00  0.00  0.00  0.00
  2064                    1.00   0.12  0.00  0.00  0.65  0.23  0.00  0.00  0.00  0.00
  2065                    1.00   0.12  0.00  0.00  0.88  0.00  0.00  0.00  0.00  0.00
  2066                    1.00   0.12  0.00  0.00  0.88  0.00  0.00  0.00  0.00  0.00
  2067                    1.00   0.12  0.00  0.00  0.88  0.00  0.00  0.00  0.88  0.00
  2068                    1.00   0.12  0.00  0.00  0.88  0.00  0.00  0.00  0.00  0.00
  2069                    1.00   0.12  0.00  0.00  0.88  0.00  0.00  0.00  0.00  0.00
  2070                    1.00   0.12  0.00  0.00  0.52  0.37  0.00  0.00  0.00  0.00
  2071                    1.00   0.12  0.00  0.00  0.88  0.00  0.00  0.00  0.00  0.00
  2072                    1.00   0.12  0.00  0.00  0.66  0.22  0.00  0.00  0.85  0.00
  2073                    1.00   0.12  0.00  0.00  0.80  0.08  0.00  0.00  0.00  0.00
  2074                    1.00   0.12  0.00  0.00  0.86  0.03  0.00  0.00  0.84  0.00
  2075                    1.00   0.12  0.00  0.00  0.88  0.00  0.00  0.00  0.80  0.00
  2077                    1.00   0.12  0.00  0.00  0.00  0.88  0.00  0.00  0.83  0.00
  2078                    1.00   0.12  0.00  0.00  0.88  0.00  0.00  0.00  0.87  0.00
  2079                    1.00   0.12  0.00  0.00  0.88  0.00  0.00  0.00  0.87  0.00
  2080                    1.00   0.12  0.83  0.00  0.05  0.00  0.00  0.00  0.85  0.00
  2081                    1.00   0.12  0.00  0.00  0.00  0.88  0.00  0.00  0.88  0.00
  2082                    1.00   0.12  0.00  0.00  0.88  0.00  0.00  0.00  0.00  0.00
  2083                    1.00   0.12  0.00  0.00  0.88  0.00  0.00  0.00  0.85  0.00
  2084                    1.00   0.12  0.00  0.00  0.00  0.88  0.00  0.00  0.00  0.00
  2085                    1.00   0.12  0.00  0.00  0.88  0.00  0.00  0.00  0.00  0.00
  2086                    1.00   0.12  0.00  0.00  0.88  0.00  0.00  0.00  0.00  0.00
  2087                    1.00   0.12  0.85  0.00  0.03  0.00  0.00  0.00  0.86  0.00
  2088                    1.00   0.12  0.00  0.00  0.00  0.88  0.00  0.00  0.83  0.00
  2089                    1.00   0.12  0.00  0.00  0.88  0.00  0.00  0.00  0.00  0.00
  2090                    1.00   0.12  0.88  0.00  0.00  0.00  0.00  0.00  0.00  0.00
  2091                    1.00   0.12  0.00  0.00  0.64  0.24  0.00  0.00  0.84  0.00
  2092                    1.00   0.12  0.00  0.00  0.88  0.00  0.00  0.00  0.00  0.00
  2093                    1.00   0.12  0.00  0.00  0.75  0.14  0.00  0.00  0.88  0.00
  2094                    1.00   0.12  0.00  0.00  0.88  0.00  0.00  0.00  0.00  0.00
  2095                    1.00   0.12  0.00  0.00  0.80  0.08  0.00  0.00  0.00  0.00
  2096                    1.00   0.12  0.00  0.00  0.88  0.00  0.00  0.00  0.00  0.00
  2097                    1.00   0.12  0.00  0.00  0.88  0.00  0.00  0.00  0.02  0.00
  2098                    1.00   0.12  0.00  0.00  0.00  0.88  0.00  0.00  0.22  0.00
  2099                    1.00   0.12  0.00  0.00  0.88  0.00  0.00  0.00  0.00  0.00
  2100                    1.00   0.12  0.00  0.00  0.88  0.00  0.00  0.00  0.01  0.00
  2101                    1.00   0.12  0.00  0.00  0.00  0.88  0.00  0.00  0.88  0.00
  2102                    1.00   0.12  0.00  0.00  0.85  0.04  0.00  0.00  0.00  0.00
  2103                    1.00   0.12  0.00  0.00  0.88  0.00  0.00  0.00  0.00  0.00
  2104                    1.00   0.12  0.00  0.00  0.00  0.88  0.00  0.00  0.46  0.00
  2105                    1.00   0.12  0.00  0.00  0.88  0.00  0.00  0.00  0.00  0.00
  2106                    1.00   0.12  0.00  0.00  0.00  0.88  0.00  0.00  0.00  0.00
  2107                    1.00   0.12  0.00  0.00  0.88  0.00  0.00  0.00  0.00  0.00
  2108                    1.00   0.12  0.00  0.00  0.88  0.00  0.00  0.00  0.00  0.00
  2109                    1.00   0.12  0.00  0.00  0.00  0.88  0.00  0.00  0.82  0.00
  2110                    1.00   0.12  0.00  0.00  0.88  0.00  0.00  0.00  0.00  0.00
  2111                    1.00   0.12  0.00  0.00  0.88  0.00  0.00  0.00  0.00  0.00
  2112                    1.00   0.12  0.00  0.00  0.88  0.00  0.00  0.00  0.00  0.00
  2113                    1.00   0.12  0.00  0.00  0.11  0.77  0.00  0.00  0.83  0.00
  2114                    1.00   0.12  0.00  0.00  0.88  0.00  0.00  0.00  0.24  0.00
  2115                    1.00   0.12  0.00  0.00  0.00  0.88  0.00  0.00  0.86  0.00
  2116                    1.00   0.12  0.00  0.00  0.88  0.00  0.00  0.00  0.03  0.00
  2117                    1.00   0.12  0.00  0.00  0.88  0.00  0.00  0.00  0.00  0.00
  2118                    1.00   0.12  0.00  0.00  0.61  0.28  0.00  0.00  0.86  0.00
  2119                    1.00   0.12  0.00  0.00  0.20  0.69  0.00  0.00  0.08  0.00
  2120                    1.00   0.12  0.00  0.00  0.06  0.82  0.00  0.00  0.84  0.00
  2121                    1.00   0.12  0.00  0.00  0.87  0.02  0.00  0.00  0.23  0.00
  2122                    1.00   0.12  0.01  0.00  0.24  0.64  0.00  0.00  0.82  0.00
  2123                    1.00   0.12  0.00  0.00  0.31  0.57  0.00  0.00  0.62  0.00
  2124                    1.00   0.12  0.00  0.00  0.88  0.01  0.00  0.00  0.44  0.00
  2125                    1.00   0.12  0.00  0.00  0.88  0.00  0.00  0.00  0.39  0.00
  2126                    1.00   0.12  0.00  0.00  0.87  0.01  0.00  0.00  0.24  0.00
  2127                    1.00   0.12  0.00  0.00  0.80  0.08  0.00  0.00  0.84  0.00
  2128                    1.00   0.12  0.00  0.00  0.50  0.38  0.00  0.00  0.22  0.00
  2129                    1.00   0.12  0.00  0.00  0.87  0.02  0.00  0.00  0.00  0.00
  2130                    1.00   0.12  0.00  0.00  0.88  0.00  0.00  0.00  0.00  0.00
  2132                    1.00   0.12  0.00  0.00  0.88  0.00  0.00  0.00  0.82  0.00
  2133                    1.00   0.12  0.00  0.00  0.74  0.14  0.00  0.00  0.85  0.00
  2134                    1.00   0.12  0.00  0.00  0.88  0.00  0.00  0.00  0.10  0.00
  2135                    1.00   0.12  0.00  0.00  0.88  0.00  0.00  0.00  0.00  0.00
  2136                    1.00   0.12  0.00  0.00  0.01  0.88  0.00  0.00  0.83  0.00
  2137                    1.00   0.12  0.00  0.00  0.87  0.01  0.00  0.00  0.05  0.00
  2138                    1.00   0.12  0.00  0.00  0.06  0.82  0.00  0.00  0.84  0.00
  2139                    1.00   0.12  0.00  0.00  0.88  0.00  0.00  0.00  0.09  0.00
  2140                    1.00   0.12  0.00  0.00  0.10  0.78  0.00  0.00  0.09  0.00
  2141                    1.00   0.12  0.00  0.00  0.13  0.76  0.00  0.00  0.13  0.00
  2142                    1.00   0.12  0.00  0.00  0.72  0.16  0.00  0.00  0.00  0.00
  2143                    1.00   0.12  0.00  0.00  0.88  0.00  0.00  0.00  0.00  0.00
  2144                    1.00   0.12  0.00  0.00  0.83  0.05  0.00  0.00  0.86  0.00
  2145                    1.00   0.12  0.00  0.00  0.88  0.00  0.00  0.00  0.86  0.00
  2146                    1.00   0.12  0.00  0.00  0.58  0.31  0.00  0.00  0.83  0.00
  2147                    1.00   0.12  0.00  0.00  0.88  0.00  0.00  0.00  0.76  0.00
  2148                    1.00   0.12  0.00  0.00  0.88  0.00  0.00  0.00  0.03  0.00
  2149                    1.00   0.12  0.00  0.00  0.02  0.87  0.00  0.00  0.78  0.00
  2150                    1.00   0.12  0.00  0.00  0.88  0.00  0.00  0.00  0.08  0.00
  2151                    1.00   0.12  0.00  0.00  0.02  0.87  0.00  0.00  0.84  0.00
  2152                    1.00   0.12  0.00  0.00  0.88  0.00  0.00  0.00  0.06  0.00
  2153                    1.00   0.12  0.00  0.00  0.88  0.00  0.00  0.00  0.08  0.00
  2154                    1.00   0.12  0.00  0.00  0.07  0.82  0.00  0.00  0.29  0.00
  2155                    1.00   0.12  0.00  0.00  0.01  0.88  0.00  0.00  0.02  0.00
  2156                    1.00   0.12  0.00  0.00  0.88  0.00  0.00  0.00  0.04  0.00
  2157                    1.00   0.12  0.00  0.00  0.88  0.00  0.00  0.00  0.84  0.00
  2158                    1.00   0.12  0.00  0.00  0.88  0.00  0.00  0.00  0.84  0.00
  2159                    1.00   0.12  0.00  0.00  0.88  0.00  0.00  0.00  0.00  0.00
  2162                    1.00   0.12  0.00  0.00  0.88  0.00  0.00  0.00  0.00  0.00
  2163                    1.00   0.12  0.00  0.00  0.88  0.00  0.00  0.00  0.86  0.00
  2164                    1.00   0.12  0.00  0.00  0.88  0.00  0.00  0.00  0.87  0.00
  2200                    1.00   0.12  0.00  0.00  0.88  0.00  0.00  0.00  0.00  0.00
  
  
  *************************
  Conduit Surcharge Summary
  *************************
  
  ----------------------------------------------------------------------------
                                                           Hours        Hours 
                         --------- Hours Full --------   Above Full   Capacity
  Conduit                Both Ends  Upstream  Dnstream   Normal Flow   Limited
  ----------------------------------------------------------------------------
  2000                        0.01      0.49      0.01      0.43         0.01
  2002                        0.43      0.43      0.49      0.01         0.01
  2003                        0.43      0.47      0.43      0.01         0.43
  2004                        0.11      0.11      0.47      0.01         0.01
  2005                        0.11      0.50      0.11      0.51         0.11
  2006                        0.47      0.47      0.50      0.01         0.44
  2007                        0.44      0.44      0.47      0.01         0.01
  2008                        0.22      0.22      0.44      0.01         0.01
  2009                        0.15      0.15      0.22      0.01         0.01
  2010                        0.01      0.01      0.15      0.01         0.01
  2015                       21.03     21.03     21.04      0.01         0.01
  2016                        0.58      0.58      0.60      0.01         0.01
  2017                       21.04     21.04     21.05      0.01         0.01
  2018                        0.45      0.45     21.06      0.01         0.01
  2019                       21.05     21.05     21.08      0.01         0.01
  2020                       21.03     21.03     21.05      0.01         0.01
  2021                       21.03     21.03     21.03      0.01         0.01
  2022                        0.01      0.01      0.45      0.01         0.01
  2026                        0.01      0.01     21.04      0.01         0.01
  2027                        0.07      0.07     21.04      0.01         0.01
  2028                        0.07      0.07     21.07      0.01         0.01
  2033                        0.01      0.01      0.67      0.01         0.01
  2034                        0.39      0.39      0.47      0.01         0.01
  2039                        0.22      0.25      0.22      0.18         0.22
  2040                        0.22      0.22      0.40      0.01         0.01
  2042                        0.01      0.08      0.01      0.01         0.01
  2048                        0.01      0.01      0.11      0.01         0.01
  2049                        0.01      0.01      0.11      0.01         0.01
  2050                        0.01      0.09      0.01      0.40         0.01
  2051                        0.01      0.01      0.09      0.01         0.01
  2052                        0.48      0.48      0.49      0.06         0.01
  2053                        0.01      0.14      0.01      0.01         0.01
  2054                        0.51      0.51      0.56      0.01         0.01
  2055                        0.02      0.02      0.14      0.01         0.01
  2056                        0.27      0.27      0.43      0.05         0.01
  2057                        0.15      0.15      0.27      0.01         0.02
  2058                        0.01      0.01      0.02      0.01         0.01
  2059                        0.01      0.01      0.19      0.01         0.01
  2060                        0.01      0.01      0.59      0.01         0.01
  2062                        0.04      0.04      0.07      0.01         0.01
  2063                        0.07      0.07      0.39      0.01         0.01
  2065                        0.45      0.45      0.69      0.01         0.01
  2066                        0.45      0.45      0.57      0.12         0.01
  2068                        0.01      0.01      0.29      0.01         0.01
  2069                        0.01      0.01      0.44      0.01         0.01
  2071                        0.03      0.03      0.56      0.01         0.01
  2073                        0.01      0.37      0.01      0.49         0.01
  2074                        0.27      0.27      0.37      0.02         0.17
  2075                        0.34      0.34      0.36      0.01         0.26
  2078                        0.01      0.01      0.30      0.01         0.01
  2079                        0.01      0.01      0.30      0.01         0.01
  2080                        0.14      0.14      0.30      0.01         0.01
  2082                        0.01      0.01      0.14      0.12         0.01
  2085                        0.01      0.01      0.44      0.01         0.01
  2086                        0.01      0.01      0.56      0.01         0.01
  2087                        0.01      0.01      0.56      0.01         0.01
  2089                        0.01      0.01      0.22      0.01         0.01
  2092                        0.01      0.11      0.01      0.25         0.01
  2096                        0.01      0.01      0.45      0.01         0.01
  2097                        0.46      0.46      0.50      0.01         0.01
  2098                        0.01      0.13      0.01      0.01         0.01
  2099                        0.50      0.50      0.68      0.01         0.01
  2100                        0.50      0.50     21.13      0.01         0.01
  2101                        0.01      0.01      0.13      0.01         0.01
  2102                        0.01      0.01      0.43      0.49         0.01
  2103                        0.01      0.01      0.51      0.01         0.01
  2105                        0.01      0.01      0.37      0.01         0.01
  2107                        0.01      0.01      0.17      0.01         0.01
  2108                        0.01      0.01      0.38      0.01         0.01
  2110                        0.01      0.01      0.18      0.01         0.01
  2111                        0.40      0.40      1.22      0.01         0.01
  2112                        0.01      0.01      0.28      0.01         0.01
  2113                        0.24      0.24      0.32      0.01         0.01
  2114                        0.55      0.55      5.86      0.01         0.01
  2115                        0.01      0.01      0.24      0.01         0.01
  2116                        0.58      0.58      0.65      0.38         0.01
  2117                        0.62      0.62      0.65      0.19         0.39
  2121                        0.01      0.01      0.60      0.01         0.01
  2125                        0.01      0.01      0.38      0.01         0.01
  2126                        0.01      0.01      0.45      0.01         0.01
  2129                        0.01      0.01      0.59      0.45         0.01
  2130                        1.20      1.20     21.12      0.01         0.01
  2132                        0.51      0.51      0.59      0.01         0.25
  2133                        0.47      0.47      0.57      0.01         0.01
  2134                        0.56      0.56      0.64      0.01         0.01
  2135                        1.20      1.20      1.64      0.36         0.01
  2136                        0.01      0.01      0.50      0.01         0.01
  2137                        0.01      0.01      0.53      0.16         0.01
  2139                        0.01      0.01      0.13      0.12         0.01
  2141                        0.01      0.18      0.01      0.01         0.01
  2142                        0.01      0.01      0.01      0.01         0.01
  2143                        0.04      0.04      0.50      0.01         0.01
  2144                        0.01      0.01      0.04      0.01         0.01
  2145                        0.34      0.34      0.57      0.01         0.01
  2146                        0.31      0.31      0.34      0.01         0.01
  2147                        0.39      0.39      0.39      0.01         0.38
  2148                        0.46      0.46      0.60      0.01         0.01
  2149                        0.14      0.14      0.33      0.01         0.01
  2150                        0.23      0.23      0.86      0.01         0.01
  2151                        0.01      0.01      0.14      0.01         0.01
  2152                        0.01      0.01      0.35      0.01         0.01
  2153                        0.01      0.01      0.27      0.01         0.01
  2155                        0.01      0.12      0.01      0.01         0.01
  2156                        0.18      0.18      0.51      0.45         0.01
  2157                        0.55      0.55      0.60      0.01         0.01
  2158                        0.61      0.61      0.74      0.01         0.01
  2159                       21.09     21.09     21.10      0.01         0.01
  2162                        0.59      0.59      0.67      0.16         0.01
  2163                        0.34      0.34      0.76      0.01         0.01
  2164                        0.39      0.39      0.83      0.01         0.01
  2200                       21.03     21.03     21.04      0.01         0.01
  

  Analysis begun on:  Wed Jun 24 12:10:47 2026
  Analysis ended on:  Wed Jun 24 12:10:49 2026
  Total elapsed time: 00:00:02