
  EPA STORM WATER MANAGEMENT MODEL - VERSION 5.2 (Build 5.2.4)
  ------------------------------------------------------------

  
  ERROR 209: undefined object 3YR-1HR at line 41 of [RAINGAGE] section:
  RAINGAGE-1	CUMULATIVE	0.100000	1.000000	TIMESERIES	3YR-1HR		


  Analysis begun on:  Wed Jun 24 12:10:49 2026
  Analysis ended on:  Wed Jun 24 12:10:49 2026
  Total elapsed time: < 1 sec