
  EPA STORM WATER MANAGEMENT MODEL - VERSION 5.2 (Build 5.2.4)
  ------------------------------------------------------------

  WARNING 04: minimum elevation drop used for Conduit 14H221.1
  
  ****************
  Analysis Options
  ****************
  Flow Units ............... CMS
  Process Models:
    Rainfall/Runoff ........ YES
    RDII ................... NO
    Snowmelt ............... NO
    Groundwater ............ NO
    Flow Routing ........... YES
    Ponding Allowed ........ YES
    Water Quality .......... NO
  Infiltration Method ...... HORTON
  Flow Routing Method ...... DYNWAVE
  Surcharge Method ......... EXTRAN
  Starting Date ............ 12/19/2018 00:00:00
  Ending Date .............. 12/19/2018 12:00:00
  Antecedent Dry Days ...... 0.0
  Report Time Step ......... 00:15:00
  Wet Time Step ............ 00:05:00
  Dry Time Step ............ 01:00:00
  Routing Time Step ........ 30.00 sec
  Variable Time Step ....... YES
  Maximum Trials ........... 8
  Number of Threads ........ 1
  Head Tolerance ........... 0.001500 m
  
  
  **************************        Volume         Depth
  Runoff Quantity Continuity     hectare-m            mm
  **************************     ---------       -------
  Total Precipitation ......         1.734        26.000
  Evaporation Loss .........         0.000         0.000
  Infiltration Loss ........         1.110        16.642
  Surface Runoff ...........         0.624         9.358
  Final Storage ............         0.000         0.000
  Continuity Error (%) .....         0.000
  
  
  **************************        Volume        Volume
  Flow Routing Continuity        hectare-m      10^6 ltr
  **************************     ---------     ---------
  Dry Weather Inflow .......         0.000         0.000
  Wet Weather Inflow .......         0.624         6.241
  Groundwater Inflow .......         0.000         0.000
  RDII Inflow ..............         0.000         0.000
  External Inflow ..........         0.000         0.000
  External Outflow .........         0.624         6.238
  Flooding Loss ............         0.000         0.000
  Evaporation Loss .........         0.000         0.000
  Exfiltration Loss ........         0.000         0.000
  Initial Stored Volume ....         0.000         0.000
  Final Stored Volume ......         0.000         0.003
  Continuity Error (%) .....        -0.008
  
  
  ***************************
  Time-Step Critical Elements
  ***************************
  Link 14H221.1 (59.99%)
  Link 14H228.1 (35.33%)
  
  
  ********************************
  Highest Flow Instability Indexes
  ********************************
  All links are stable.
  
  
  *********************************
  Most Frequent Nonconverging Nodes
  *********************************
  Convergence obtained at all time steps.
  
  
  *************************
  Routing Time Step Summary
  *************************
  Minimum Time Step           :     0.26 sec
  Average Time Step           :     5.67 sec
  Maximum Time Step           :    30.00 sec
  % of Time in Steady State   :     0.00
  Average Iterations per Step :     2.01
  % of Steps Not Converging   :     0.00
  Time Step Frequencies       :
     30.000 -  3.817 sec      :    48.90 %
      3.817 -  0.486 sec      :    50.91 %
      0.486 -  0.062 sec      :     0.18 %
      0.062 -  0.008 sec      :     0.00 %
      0.008 -  0.001 sec      :     0.00 %
  
  
  ***************************
  Subcatchment Runoff Summary
  ***************************
  
  ------------------------------------------------------------------------------------------------------------------------------
                            Total      Total      Total      Total     Imperv       Perv      Total       Total     Peak  Runoff
                           Precip      Runon       Evap      Infil     Runoff     Runoff     Runoff      Runoff   Runoff   Coeff
  Subcatchment                 mm         mm         mm         mm         mm         mm         mm    10^6 ltr      CMS
  ------------------------------------------------------------------------------------------------------------------------------
  Z12_H_929                 26.00       0.00       0.00       5.57      20.43       0.00      20.43        0.19     0.02   0.786
  Z12_H_930                 26.00       0.00       0.00      19.69       6.31       0.00       6.31        0.13     0.01   0.243
  Z12_H_931                 26.00       0.00       0.00      19.64       6.36       0.00       6.36        0.08     0.01   0.245
  Z12_H_932                 26.00       0.00       0.00      19.58       6.42       0.00       6.42        0.25     0.02   0.247
  Z12_H_933                 26.00       0.00       0.00      15.59      10.41       0.00      10.41        0.13     0.01   0.400
  Z12_H_934                 26.00       0.00       0.00      15.71      10.29       0.00      10.29        0.23     0.02   0.396
  Z12_H_935                 26.00       0.00       0.00      15.03      10.97       0.00      10.97        0.13     0.01   0.422
  Z12_H_936                 26.00       0.00       0.00      14.49      11.51       0.00      11.51        0.14     0.01   0.443
  Z12_H_937                 26.00       0.00       0.00      14.21      11.79       0.00      11.79        0.20     0.02   0.453
  Z12_H_938                 26.00       0.00       0.00      16.73       9.27       0.00       9.27        0.33     0.03   0.357
  Z12_H_939                 26.00       0.00       0.00      16.82       9.18       0.00       9.18        0.28     0.02   0.353
  Z12_H_940                 26.00       0.00       0.00      14.32      11.68       0.00      11.68        0.29     0.02   0.449
  Z12_H_941                 26.00       0.00       0.00      17.59       8.41       0.00       8.41        0.11     0.01   0.323
  Z12_H_942                 26.00       0.00       0.00      17.30       8.70       0.00       8.70        0.25     0.02   0.334
  Z12_H_943                 26.00       0.00       0.00      15.87      10.13       0.00      10.13        0.14     0.01   0.390
  Z12_H_944                 26.00       0.00       0.00      17.31       8.69       0.00       8.69        0.24     0.02   0.334
  Z12_H_945                 26.00       0.00       0.00      16.38       9.62       0.00       9.62        0.10     0.01   0.370
  Z12_H_946                 26.00       0.00       0.00      19.51       6.49       0.00       6.49        0.19     0.02   0.250
  Z12_H_947                 26.00       0.00       0.00      15.62      10.38       0.00      10.38        0.11     0.01   0.399
  Z12_H_948                 26.00       0.00       0.00      17.44       8.56       0.00       8.56        0.48     0.04   0.329
  Z12_H_949                 26.00       0.00       0.00      17.64       8.36       0.00       8.36        0.14     0.01   0.322
  Z12_H_950                 26.00       0.00       0.00      18.47       7.53       0.00       7.53        0.14     0.01   0.289
  Z12_H_951                 26.00       0.00       0.00      14.77      11.23       0.00      11.23        0.16     0.01   0.432
  Z12_H_952                 26.00       0.00       0.00      17.56       8.44       0.00       8.44        0.22     0.02   0.325
  Z12_H_953                 26.00       0.00       0.00       9.35      16.65       0.00      16.65        0.09     0.01   0.640
  Z12_H_954                 26.00       0.00       0.00      16.85       9.15       0.00       9.15        0.10     0.01   0.352
  Z12_H_955                 26.00       0.00       0.00      12.67      13.33       0.00      13.33        0.11     0.01   0.513
  Z12_H_956                 26.00       0.00       0.00      13.73      12.27       0.00      12.27        0.21     0.02   0.472
  Z12_H_957                 26.00       0.00       0.00      16.48       9.52       0.00       9.52        0.24     0.02   0.366
  Z12_H_958                 26.00       0.00       0.00      15.83      10.17       0.00      10.17        0.14     0.01   0.391
  Z12_H_959                 26.00       0.00       0.00      16.80       9.20       0.00       9.20        0.35     0.03   0.354
  Z12_H_960                 26.00       0.00       0.00      16.13       9.87       0.00       9.87        0.34     0.03   0.380
  
  
  ******************
  Node Depth Summary
  ******************
  
  ---------------------------------------------------------------------------------
                                 Average  Maximum  Maximum  Time of Max    Reported
                                   Depth    Depth      HGL   Occurrence   Max Depth
  Node                 Type       Meters   Meters   Meters  days hr:min      Meters
  ---------------------------------------------------------------------------------
  13H127               JUNCTION     0.05     0.09    29.23     0  03:06        0.09
  13H53                JUNCTION     0.02     0.04    17.05     0  03:08        0.04
  14H96                JUNCTION     0.07     0.13    12.34     0  03:14        0.13
  14H97                JUNCTION     0.03     0.06    13.35     0  03:16        0.06
  13H68                JUNCTION     0.06     0.10    29.91     0  03:06        0.10
  13H69                JUNCTION     0.00     0.00    27.43     0  00:00        0.00
  14H227               JUNCTION     0.04     0.07     7.81     0  03:53        0.07
  14H228               JUNCTION     0.05     0.11     7.95     0  03:48        0.11
  14H229               JUNCTION     0.05     0.08     8.19     0  03:33        0.08
  14H230               JUNCTION     0.05     0.11     8.24     0  03:33        0.11
  14H233               JUNCTION     0.08     0.15    11.45     0  04:00        0.15
  13H191               JUNCTION     0.12     0.22    14.00     0  04:00        0.22
  13H192               JUNCTION     0.17     0.35    14.92     0  04:00        0.35
  13H194               JUNCTION     0.03     0.05    21.00     0  03:07        0.05
  13H196               JUNCTION     0.05     0.09    27.62     0  03:18        0.09
  13H200               JUNCTION     0.03     0.05    31.55     0  03:22        0.05
  13H201               JUNCTION     0.04     0.09    32.14     0  03:21        0.09
  13H202               JUNCTION     0.03     0.05    35.72     0  03:10        0.05
  13H205               JUNCTION     0.09     0.17    25.22     0  03:07        0.16
  13H206               JUNCTION     0.17     0.23    26.08     0  03:46        0.23
  13H208               JUNCTION     0.03     0.05    35.65     0  03:16        0.05
  14H234               JUNCTION     0.03     0.06    14.72     0  03:15        0.06
  14H236               JUNCTION     0.03     0.06    16.15     0  03:06        0.06
  13H210               JUNCTION     0.05     0.09    15.47     0  03:12        0.09
  13H211               JUNCTION     0.08     0.13    17.04     0  03:10        0.13
  13H212               JUNCTION     0.04     0.07    18.55     0  03:13        0.07
  13H213               JUNCTION     0.04     0.07    20.68     0  03:05        0.07
  13H219               JUNCTION     0.15     0.31    11.61     0  04:00        0.31
  14H9                 JUNCTION     0.15     0.28    10.41     0  04:00        0.28
  14H10                JUNCTION     0.16     0.30     8.59     0  04:00        0.30
  14H11                JUNCTION     0.17     0.33     7.25     0  04:00        0.33
  14H12                JUNCTION     0.23     0.44     6.44     0  04:00        0.44
  14H13                JUNCTION     0.14     0.27     5.84     0  04:00        0.27
  14H14                JUNCTION     0.20     0.38     4.56     0  04:00        0.38
  14H15                JUNCTION     0.19     0.36     3.73     0  04:00        0.36
  13H185               JUNCTION     0.05     0.09    32.55     0  03:05        0.09
  13H186               JUNCTION     0.13     0.24    23.62     0  03:37        0.24
  13H188               JUNCTION     0.04     0.09    23.35     0  03:38        0.09
  13H189               JUNCTION     0.07     0.15    30.39     0  03:05        0.15
  14H221               JUNCTION     0.21     0.59     6.16     0  04:00        0.59
  14H217               JUNCTION     0.04     0.07    11.33     0  03:19        0.07
  14H218               JUNCTION     0.05     0.10    11.98     0  03:17        0.10
  13H190               JUNCTION     0.20     0.45    15.20     0  04:00        0.45
  14H219               JUNCTION     0.17     0.33    10.98     0  04:00        0.33
  13H129               JUNCTION     0.07     0.14    13.00     0  03:07        0.14
  14H16                OUTFALL      0.18     0.34     2.90     0  04:00        0.34
  
  
  *******************
  Node Inflow Summary
  *******************
  
  -------------------------------------------------------------------------------------------------
                                  Maximum  Maximum                  Lateral       Total        Flow
                                  Lateral    Total  Time of Max      Inflow      Inflow     Balance
                                   Inflow   Inflow   Occurrence      Volume      Volume       Error
  Node                 Type           CMS      CMS  days hr:min    10^6 ltr    10^6 ltr     Percent
  -------------------------------------------------------------------------------------------------
  13H127               JUNCTION     0.021    0.046     0  03:13       0.243       0.535      -0.004
  13H53                JUNCTION     0.008    0.018     0  03:08      0.0943       0.207      -0.020
  14H96                JUNCTION     0.000    0.031     0  03:16           0       0.358      -0.008
  14H97                JUNCTION     0.020    0.031     0  03:15        0.23       0.358      -0.010
  13H68                JUNCTION     0.012    0.086     0  03:05       0.142        1.01      -0.016
  13H69                JUNCTION     0.000    0.000     0  00:00           0           0       0.000 ltr
  14H227               JUNCTION     0.000    0.011     0  03:49           0        0.13       0.002
  14H228               JUNCTION     0.000    0.011     0  03:29           0        0.13       0.024
  14H229               JUNCTION     0.000    0.011     0  03:05           0        0.13      -0.019
  14H230               JUNCTION     0.011    0.011     0  03:05        0.13        0.13      -0.001
  14H233               JUNCTION     0.000    0.031     0  03:17           0       0.358       0.013
  13H191               JUNCTION     0.017    0.318     0  04:00       0.201        3.71       0.004
  13H192               JUNCTION     0.000    0.249     0  04:00           0        2.91       0.003
  13H194               JUNCTION     0.010    0.010     0  03:05       0.113       0.113       0.002
  13H196               JUNCTION     0.000    0.046     0  03:07           0       0.535      -0.008
  13H200               JUNCTION     0.000    0.025     0  03:29           0       0.292       0.003
  13H201               JUNCTION     0.008    0.025     0  03:09      0.0981       0.292       0.003
  13H202               JUNCTION     0.017    0.017     0  03:05       0.194       0.194      -0.004
  13H205               JUNCTION     0.019    0.114     0  03:07       0.221        1.33      -0.004
  13H206               JUNCTION     0.009    0.095     0  03:06       0.106        1.11       0.164
  13H208               JUNCTION     0.012    0.012     0  03:05       0.145       0.145      -0.010
  14H234               JUNCTION     0.000    0.011     0  03:07           0       0.128       0.049
  14H236               JUNCTION     0.011    0.011     0  03:05       0.128       0.128      -0.026
  13H210               JUNCTION     0.000    0.051     0  03:11           0       0.602      -0.005
  13H211               JUNCTION     0.028    0.051     0  03:13       0.326       0.602       0.003
  13H212               JUNCTION     0.000    0.024     0  03:06           0       0.276       0.022
  13H213               JUNCTION     0.024    0.024     0  03:05       0.276       0.276      -0.018
  13H219               JUNCTION     0.000    0.389     0  04:00           0        4.54      -0.002
  14H9                 JUNCTION     0.000    0.460     0  04:00           0        5.38      -0.002
  14H10                JUNCTION     0.000    0.460     0  04:00           0        5.38       0.004
  14H11                JUNCTION     0.022    0.482     0  04:00       0.252        5.63      -0.004
  14H12                JUNCTION     0.007    0.488     0  04:00       0.077        5.71       0.007
  14H13                JUNCTION     0.016    0.534     0  04:00       0.186        6.24      -0.002
  14H14                JUNCTION     0.000    0.534     0  04:00           0        6.24      -0.006
  14H15                JUNCTION     0.000    0.534     0  04:00           0        6.24       0.007
  13H185               JUNCTION     0.062    0.062     0  03:05       0.722       0.722      -0.002
  13H186               JUNCTION     0.026    0.071     0  03:14       0.301       0.836       0.006
  13H188               JUNCTION     0.021    0.207     0  03:48       0.246        2.42       0.004
  13H189               JUNCTION     0.000    0.062     0  03:05           0       0.722       0.001
  14H221               JUNCTION     0.018    0.029     0  03:48       0.214       0.343      -0.010
  14H217               JUNCTION     0.011    0.042     0  03:19       0.132        0.49      -0.010
  14H218               JUNCTION     0.000    0.031     0  03:15           0       0.358       0.003
  13H190               JUNCTION     0.025    0.249     0  03:30       0.288        2.91       0.016
  14H219               JUNCTION     0.030    0.418     0  04:00       0.348        4.89      -0.001
  13H129               JUNCTION     0.071    0.071     0  03:05        0.83        0.83       0.001
  14H16                OUTFALL      0.000    0.534     0  04:00           0        6.24       0.000
  
  
  **********************
  Node Surcharge Summary
  **********************
  
  Surcharging occurs when water rises above the top of the highest conduit.
  ---------------------------------------------------------------------
                                               Max. Height   Min. Depth
                                   Hours       Above Crown    Below Rim
  Node                 Type      Surcharged         Meters       Meters
  ---------------------------------------------------------------------
  14H221               JUNCTION        4.32          0.439        2.284
  
  
  *********************
  Node Flooding Summary
  *********************
  
  No nodes were flooded.
  
  
  ***********************
  Outfall Loading Summary
  ***********************
  
  -----------------------------------------------------------
                         Flow       Avg       Max       Total
                         Freq      Flow      Flow      Volume
  Outfall Node           Pcnt       CMS       CMS    10^6 ltr
  -----------------------------------------------------------
  14H16                 98.12     0.193     0.534       6.238
  -----------------------------------------------------------
  System                98.12     0.193     0.534       6.238
  
  
  ********************
  Link Flow Summary
  ********************
  
  -----------------------------------------------------------------------------
                                 Maximum  Time of Max   Maximum    Max/    Max/
                                  |Flow|   Occurrence   |Veloc|    Full    Full
  Link                 Type          CMS  days hr:min     m/sec    Flow   Depth
  -----------------------------------------------------------------------------
  13H53.1              CONDUIT     0.018     0  03:08      2.61    0.03    0.56
  13H205.1             CONDUIT     0.115     0  03:07      2.62    0.11    0.21
  14H12.1              CONDUIT     0.488     0  04:00      1.73    0.21    0.29
  14H230.1             CONDUIT     0.011     0  03:05      0.58    0.16    0.31
  14H229.1             CONDUIT     0.011     0  03:29      0.58    0.16    0.32
  14H228.1             CONDUIT     0.011     0  03:49      1.00    0.58    0.59
  14H13.1              CONDUIT     0.534     0  04:00      2.12    0.09    0.27
  13H192.1             CONDUIT     0.249     0  04:00      2.05    0.57    0.53
  13H194.1             CONDUIT     0.010     0  03:08      1.64    0.04    0.13
  13H69.1              CONDUIT     0.000     0  00:00      0.00    0.00    0.22
  14H227.1             CONDUIT     0.011     0  03:46      0.79    0.39    0.72
  14H221.1             CONDUIT     0.029     0  04:00      1.61   13.59    1.00
  13H188.1             CONDUIT     0.207     0  03:30      0.99    0.05    0.32
  14H236.1             CONDUIT     0.011     0  03:07      1.08    0.08    0.20
  13H196.1             CONDUIT     0.046     0  03:14      0.90    0.08    0.35
  13H213.1             CONDUIT     0.024     0  03:06      1.44    0.05    0.16
  14H96.1              CONDUIT     0.031     0  03:15      0.96    0.15    0.25
  14H11.1              CONDUIT     0.482     0  04:00      1.65    0.17    0.36
  13H186.1             CONDUIT     0.071     0  03:56      1.35    0.39    0.36
  13H208.1             CONDUIT     0.012     0  03:11      1.03    0.07    0.29
  14H233.1             CONDUIT     0.031     0  03:19      1.02    0.19    0.24
  14H9.1               CONDUIT     0.460     0  04:00      2.35    0.12    0.27
  14H217.1             CONDUIT     0.042     0  03:19      0.86    0.02    0.28
  13H127.1             CONDUIT     0.046     0  03:07      2.33    0.10    0.23
  14H218.1             CONDUIT     0.031     0  03:17      0.85    0.10    0.27
  13H202.1             CONDUIT     0.017     0  03:09      1.34    0.07    0.23
  14H219.1             CONDUIT     0.418     0  04:00      1.98    0.13    0.29
  13H185.1             CONDUIT     0.062     0  03:05      2.02    0.13    0.32
  13H189.1             CONDUIT     0.062     0  03:05      1.93    0.17    0.33
  13H68.1              CONDUIT     0.086     0  03:06      1.33    0.06    0.27
  13H201.1             CONDUIT     0.025     0  03:29      1.98    0.10    0.23
  13H200.1             CONDUIT     0.025     0  03:12      1.93    0.07    0.23
  14H97.1              CONDUIT     0.031     0  03:16      1.24    0.04    0.21
  14H15.1              CONDUIT     0.534     0  04:00      1.93    0.17    0.29
  13H191.1             CONDUIT     0.318     0  04:00      2.04    0.12    0.29
  14H14.1              CONDUIT     0.534     0  04:00      1.77    0.17    0.30
  14H10.1              CONDUIT     0.460     0  04:00      2.08    0.14    0.30
  13H190.1             CONDUIT     0.249     0  04:00      1.38    0.57    0.75
  14H234.1             CONDUIT     0.011     0  03:15      1.04    0.09    0.20
  13H211.1             CONDUIT     0.051     0  03:11      1.71    0.08    0.19
  13H210.1             CONDUIT     0.051     0  03:12      1.22    0.07    0.29
  13H129.1             CONDUIT     0.071     0  03:07      1.85    0.16    0.28
  13H212.1             CONDUIT     0.024     0  03:13      0.88    0.06    0.22
  13H219.1             CONDUIT     0.389     0  04:00      1.90    0.15    0.35
  13H206.2             CONDUIT     0.095     0  03:07      1.93    0.05    0.23
  
  
  ***************************
  Flow Classification Summary
  ***************************
  
  -------------------------------------------------------------------------------------
                      Adjusted    ---------- Fraction of Time in Flow Class ---------- 
                       /Actual         Up    Down  Sub   Sup   Up    Down  Norm  Inlet 
  Conduit               Length    Dry  Dry   Dry   Crit  Crit  Crit  Crit  Ltd   Ctrl  
  -------------------------------------------------------------------------------------
  13H53.1                 5.80   0.08  0.30  0.00  0.60  0.01  0.00  0.00  0.91  0.00
  13H205.1                1.00   0.08  0.22  0.00  0.03  0.66  0.00  0.00  0.25  0.00
  14H12.1                 1.00   0.08  0.00  0.00  0.29  0.62  0.00  0.00  0.01  0.00
  14H230.1                1.76   0.08  0.00  0.00  0.91  0.00  0.00  0.00  0.33  0.00
  14H229.1                1.00   0.08  0.00  0.00  0.91  0.00  0.00  0.00  0.90  0.00
  14H228.1                1.67   0.09  0.00  0.00  0.31  0.61  0.00  0.00  0.31  0.00
  14H13.1                 1.00   0.08  0.00  0.00  0.20  0.71  0.00  0.00  0.33  0.00
  13H192.1                1.00   0.08  0.00  0.00  0.01  0.90  0.00  0.00  0.01  0.00
  13H194.1                1.00   0.08  0.00  0.00  0.32  0.60  0.00  0.00  0.33  0.00
  13H69.1                 1.00   0.09  0.91  0.00  0.00  0.00  0.00  0.00  0.00  0.00
  14H227.1                1.00   0.08  0.19  0.00  0.72  0.00  0.00  0.00  0.91  0.00
  14H221.1                3.46   0.08  0.00  0.00  0.91  0.01  0.00  0.00  0.00  0.00
  13H188.1                1.00   0.08  0.00  0.00  0.90  0.01  0.00  0.00  0.92  0.00
  14H236.1                1.00   0.08  0.00  0.00  0.33  0.59  0.00  0.00  0.35  0.00
  13H196.1                1.00   0.08  0.28  0.00  0.63  0.01  0.00  0.00  0.92  0.00
  13H213.1                1.00   0.33  0.05  0.00  0.03  0.59  0.00  0.00  0.58  0.00
  14H96.1                 1.00   0.08  0.00  0.00  0.33  0.59  0.00  0.00  0.32  0.00
  14H11.1                 1.00   0.08  0.00  0.00  0.40  0.52  0.00  0.00  0.33  0.00
  13H186.1                1.00   0.08  0.00  0.00  0.30  0.62  0.00  0.00  0.24  0.00
  13H208.1                1.00   0.34  0.04  0.00  0.03  0.59  0.00  0.00  0.92  0.00
  14H233.1                1.19   0.08  0.00  0.00  0.30  0.61  0.00  0.00  0.01  0.00
  14H9.1                  1.00   0.08  0.00  0.00  0.17  0.74  0.00  0.00  0.32  0.00
  14H217.1                2.35   0.08  0.21  0.00  0.70  0.01  0.00  0.00  0.91  0.00
  13H127.1                1.07   0.37  0.02  0.00  0.02  0.60  0.00  0.00  0.33  0.00
  14H218.1                1.00   0.08  0.24  0.00  0.66  0.01  0.00  0.00  0.91  0.00
  13H202.1                1.00   0.08  0.00  0.00  0.32  0.59  0.00  0.00  0.92  0.00
  14H219.1                1.00   0.08  0.00  0.00  0.17  0.74  0.00  0.00  0.00  0.00
  13H185.1                1.00   0.08  0.00  0.00  0.33  0.59  0.00  0.00  0.83  0.00
  13H189.1                1.91   0.34  0.05  0.00  0.02  0.59  0.00  0.00  0.33  0.00
  13H68.1                 1.00   0.08  0.26  0.00  0.57  0.09  0.00  0.00  0.92  0.00
  13H201.1                2.24   0.08  0.00  0.00  0.31  0.61  0.00  0.00  0.32  0.00
  13H200.1                1.70   0.08  0.00  0.00  0.31  0.61  0.00  0.00  0.92  0.00
  14H97.1                 1.89   0.08  0.27  0.00  0.06  0.59  0.00  0.00  0.91  0.00
  14H15.1                 1.00   0.08  0.00  0.00  0.10  0.81  0.00  0.00  0.00  0.00
  13H191.1                1.00   0.08  0.00  0.00  0.10  0.82  0.00  0.00  0.59  0.00
  14H14.1                 1.00   0.08  0.00  0.00  0.30  0.62  0.00  0.00  0.30  0.00
  14H10.1                 1.00   0.08  0.00  0.00  0.22  0.70  0.00  0.00  0.32  0.00
  13H190.1                1.00   0.08  0.00  0.00  0.58  0.34  0.00  0.00  0.24  0.00
  14H234.1                1.00   0.08  0.00  0.00  0.29  0.63  0.00  0.00  0.02  0.00
  13H211.1                1.00   0.09  0.00  0.00  0.29  0.62  0.00  0.00  0.09  0.00
  13H210.1                1.00   0.08  0.23  0.00  0.66  0.03  0.00  0.00  0.91  0.00
  13H129.1                1.00   0.08  0.00  0.00  0.00  0.00  0.00  0.92  0.00  0.00
  13H212.1                1.00   0.08  0.25  0.00  0.58  0.09  0.00  0.00  0.92  0.00
  13H219.1                1.00   0.08  0.00  0.00  0.08  0.84  0.00  0.00  0.07  0.00
  13H206.2                3.92   0.08  0.01  0.00  0.23  0.68  0.00  0.00  0.33  0.00
  
  
  *************************
  Conduit Surcharge Summary
  *************************
  
  ----------------------------------------------------------------------------
                                                           Hours        Hours 
                         --------- Hours Full --------   Above Full   Capacity
  Conduit                Both Ends  Upstream  Dnstream   Normal Flow   Limited
  ----------------------------------------------------------------------------
  13H53.1                     0.01      0.01      1.09      0.01         0.01
  14H227.1                    0.01      0.01      4.32      0.01         0.01
  14H221.1                    4.02      4.32      4.02      7.02         4.02
  

  Analysis begun on:  Wed Jun 24 12:10:50 2026
  Analysis ended on:  Wed Jun 24 12:10:50 2026
  Total elapsed time: < 1 sec