
  EPA STORM WATER MANAGEMENT MODEL - VERSION 5.2 (Build 5.2.4)
  ------------------------------------------------------------

  WARNING 04: minimum elevation drop used for Conduit 29403032-29403031
  WARNING 04: minimum elevation drop used for Conduit 29411005-29411004
  WARNING 04: minimum elevation drop used for Conduit 29412004-29412003
  WARNING 04: minimum elevation drop used for Conduit 29413034-29414006
  WARNING 04: minimum elevation drop used for Conduit 29502023-29502007
  WARNING 04: minimum elevation drop used for Conduit 29512016-29512030
  WARNING 08: elevation drop exceeds length for Conduit 32816003-32816024B
  WARNING 04: minimum elevation drop used for Conduit 28610048-28610047
  WARNING 04: minimum elevation drop used for Conduit 29313034-29913062
  WARNING 04: minimum elevation drop used for Conduit 33011007-33011008
  WARNING 04: minimum elevation drop used for Conduit 33109024-33109022
  WARNING 04: minimum elevation drop used for Conduit 33109039-33109023
  WARNING 04: minimum elevation drop used for Conduit 33110064-33110019
  WARNING 04: minimum elevation drop used for Conduit 33113011-33113012
  WARNING 04: minimum elevation drop used for Conduit 29214019-29214019A
  WARNING 04: minimum elevation drop used for Conduit CSO7DivChamber2-29411004
  WARNING 04: minimum elevation drop used for Conduit DropShaft3A-DummyDropShaft3A
  WARNING 04: minimum elevation drop used for Conduit DropShaft3-DummyDropShaft3
  WARNING 04: minimum elevation drop used for Conduit DropShaft2-DummyDropShaft2
  WARNING 04: minimum elevation drop used for Conduit DropShaft1-DummyDropShaft1
  WARNING 04: minimum elevation drop used for Conduit ScreenShaft-PumpStation
  WARNING 10: crest elevation raised to downstream invert for regulator Link ORIFICE68@29516018-29516018B
  WARNING 10: crest elevation raised to downstream invert for regulator Link CSO152DivChamberFlapGate
  WARNING 02: maximum depth increased for Node CSO5DivChamberDummy
  
  *************
  Element Count
  *************
  Number of rain gages ...... 18
  Number of subcatchments ... 1394
  Number of nodes ........... 3545
  Number of links ........... 3575
  Number of pollutants ...... 0
  Number of land uses ....... 0
  
  
  ****************
  Raingage Summary
  ****************
                                                      Data       Recording
  Name                 Data Source                    Type       Interval 
  ------------------------------------------------------------------------
  BreconWaterTower     TypicalYear                    VOLUME      60 min.
  ChesterdaleRd        TypicalYear                    VOLUME      60 min.
  ColerainTownshipMunicipalRa TypicalYear                    VOLUME      60 min.
  DelhiMaint           TypicalYear                    VOLUME      60 min.
  GlenviewGolfCourse   TypicalYear                    VOLUME      60 min.
  MidwaySchool         TypicalYear                    VOLUME      60 min.
  MillCreekGlendaleMilfo TypicalYear                    VOLUME      60 min.
  MillCreekKemper      TypicalYear                    VOLUME      60 min.
  MillCreekTP          TypicalYear                    VOLUME      60 min.
  MountAiryWaterTower  TypicalYear                    VOLUME      60 min.
  Mt.Healthy           TypicalYear                    VOLUME      60 min.
  Obryonville          TypicalYear                    VOLUME      60 min.
  PleasantRunCentral   TypicalYear                    VOLUME      60 min.
  RossmoyneDeerPark    TypicalYear                    VOLUME      60 min.
  Sharonville          TypicalYear                    VOLUME      60 min.
  SpringGrove-CWW      TypicalYear                    VOLUME      60 min.
  WastewaterCollections TypicalYear                    VOLUME      60 min.
  WintonRidge          TypicalYear                    VOLUME      60 min.
  
  
  ********************
  Subcatchment Summary
  ********************
  Name                       Area     Width   %Imperv    %Slope Rain Gage            Outlet              
  -----------------------------------------------------------------------------------------------------------
  LMC002C0114                3.33    408.13     42.50    1.3500 MillCreekTP          29413037B           
  LMC003C0061                7.44   6244.80     55.90    6.4000 SpringGrove-CWW      33808052            
  LMC003C0020                1.92   1578.30     86.46    4.4500 SpringGrove-CWW      33801067            
  LMC003C0037                2.50    466.69     56.00    5.2300 SpringGrove-CWW      33801020            
  LMC003C0036                2.64    479.58     56.00    6.5700 SpringGrove-CWW      33801019            
  LMC003C0035                2.31    448.61     84.85    7.1400 SpringGrove-CWW      33801017            
  LMC003C0034                0.51    210.79     56.00    8.8600 SpringGrove-CWW      33801015            
  LMC003C0038                4.70   1156.68     56.00    5.0600 SpringGrove-CWW      33801014            
  LMC003C0166                0.40    186.68     56.00    5.8400 SpringGrove-CWW      33801007            
  LMC003C0023                2.17   1011.30     75.00    6.1400 MillCreekTP          33801005            
  LMC003C0031                4.30    706.82     40.44    3.2000 SpringGrove-CWW      33801004            
  LMC003C0033                1.68    382.57     56.00    4.7700 SpringGrove-CWW      33801001            
  LMC003C0017                6.54   4615.50     49.43    2.3000 SpringGrove-CWW      33716046            
  LMC003C0021                2.23    440.77     39.82    9.9200 SpringGrove-CWW      33716038            
  LMC003C0032                0.54    216.90     56.00    1.1600 SpringGrove-CWW      33716036            
  LMC003C0019                1.25    330.00     31.08    6.8600 SpringGrove-CWW      33716028            
  LMC003C0018                0.50    208.71     42.85    7.5000 MillCreekTP          33716027            
  LMC003C0013                1.22    326.02     59.41   10.9600 MillCreekTP          33716023            
  LMC003C0016                1.29    335.24     44.23    4.7800 MillCreekTP          33716021            
  LMC003C0029                0.68    243.40     56.00    1.3800 SpringGrove-CWW      33716019            
  LMC003C0027                0.28    156.18     56.00    4.1400 SpringGrove-CWW      33716017            
  LMC003C0025                1.05    302.45     56.00    4.2600 SpringGrove-CWW      33716015            
  LMC003C0028                3.03    174.59     56.00    5.5700 MillCreekTP          33716014            
  LMC003C0024                2.98    227.73     56.00    8.6300 MillCreekTP          33716011            
  LMC003C0011                0.37    179.54     56.97   20.6900 MillCreekTP          33709065            
  LMC003C0012                1.16    317.90     57.04    4.8900 MillCreekTP          33709064            
  LMC003C0015                0.88    276.89     34.68    4.7500 MillCreekTP          33709045            
  LMC003C0014                0.66    239.79     45.22    4.6800 MillCreekTP          33709044            
  LMC003C0008                6.33   4071.30     56.06    5.7800 MillCreekTP          33709043            
  LMC003C0010                2.07    424.66    100.00    2.3300 MillCreekTP          33709026            
  LMC003C0009                2.58    474.10    100.00    3.1300 MillCreekTP          33709023            
  LMC005C0165                0.30     18.06     77.71    0.1600 MillCreekTP          33016038            
  LMC002C0060                2.51    107.30     28.46    5.7680 MillCreekTP          32916061            
  LMC002C0046                1.19    102.19     14.08   17.8000 MillCreekTP          32916058            
  LMC002C0047                1.29    296.17     12.99    9.8400 MillCreekTP          32916050            
  LMC002C0059                1.34    374.23     25.82   10.1500 MillCreekTP          32916053            
  LMC002C0061                1.93    738.19     37.49    1.9280 MillCreekTP          32916053            
  LMC002C0062                0.85    186.03     37.51    2.1530 MillCreekTP          32916052            
  LMC002C0064                1.90    225.75     36.39   10.7200 MillCreekTP          32916050            
  LMC002C0065                0.39     73.37     40.73    7.8380 MillCreekTP          32916049            
  LMC002C0056                0.48    101.79     12.99    8.1900 MillCreekTP          32916048            
  LMC002C0055                0.61    220.98     12.99    8.9250 MillCreekTP          32916046            
  LMC002C0054                0.13     18.72     47.60    6.2480 MillCreekTP          32916044            
  LMC002C0033                1.34    200.86     25.00    7.8980 MillCreekTP          32916044            
  LMC002C0034                0.92    222.03     24.77    8.5200 MillCreekTP          32916043            
  LMC002C0035                0.85    219.82     21.55    8.8130 MillCreekTP          32916042            
  LMC002C0036                0.91    227.21     18.99    8.9930 MillCreekTP          32916041            
  LMC002C0076                1.69    330.20     17.33    4.1850 MillCreekTP          32916032            
  LMC002C0077                0.90    115.50     31.28   12.2100 MillCreekTP          32916030            
  LMC002C0075                1.04    202.23     42.97    0.5400 MillCreekTP          32916029            
  LMC002C0078                1.40    569.23     37.11    1.3430 MillCreekTP          32916026            
  LMC002C0080                0.77     89.87     28.62    7.5450 MillCreekTP          32916023            
  LMC002C0066                0.72    175.32     37.23    0.3525 MillCreekTP          32916020            
  LMC002C0079                0.22     60.19     43.92    4.5000 MillCreekTP          32916020            
  LMC002C0063                1.95    392.69     34.18    6.8250 MillCreekTP          32916018            
  LMC002C0037                1.69    288.11     32.61    3.1430 MillCreekTP          32916017            
  LMC002C0031                5.69    218.37     14.14   11.5100 MillCreekTP          32916015            
  LMC002C0071                1.12    152.06     44.97    3.6000 MillCreekTP          32916009            
  LMC002C0101                3.44    399.18     15.23    1.1400 MillCreekTP          32916007            
  LMC002C0070                0.94    192.95     22.63    0.0750 MillCreekTP          32916006            
  LMC002C0069                0.98    166.55     12.92    0.6900 MillCreekTP          32916003            
  LMC002C0068                3.68    242.73     21.95    0.9375 MillCreekTP          32916002            
  LMC002C0051                1.15    215.38      6.21   25.2000 MillCreekTP          32915044            
  LMC002C0007                7.68    687.32     47.31    6.8180 MillCreekTP          32915029            
  LMC002C0017                1.38    360.87     22.35    3.1950 MillCreekTP          32915028            
  LMC002C0016                2.34    193.36     35.70    5.5500 MillCreekTP          32915027            
  LMC002C0049                1.03    150.64     18.94   21.2300 MillCreekTP          32915025            
  LMC002C0050                3.20    352.77      7.14   28.5000 MillCreekTP          32915024            
  LMC002C0052                0.81    124.47     11.34   14.1000 MillCreekTP          32915023            
  LMC002C0024                0.28     66.17      0.00   22.5000 MillCreekTP          32915023            
  LMC002C0023                6.21    545.09     30.34   16.8800 MillCreekTP          32915020            
  LMC002C0058                1.66    202.02     41.99    7.6280 MillCreekTP          32915015            
  LMC002C0057                0.31     57.02      0.61   21.3100 MillCreekTP          32915013            
  LMC002C0053                2.21    248.58     37.98    1.9800 MillCreekTP          32915012            
  LMC002C0032                0.23     39.52     22.71   23.2400 MillCreekTP          32916044            
  LMC002C0029                2.08    254.28     19.84    4.2680 MillCreekTP          32915005            
  LMC002C0028                1.27    194.22     17.99   24.9300 MillCreekTP          32915004            
  LMC002C0027                0.33     47.69     45.22    9.3750 MillCreekTP          32915003            
  LMC003C0049                5.30    443.12     55.96    6.5200 MillCreekTP          32914014            
  LMC003C0048                8.25   4121.70     45.13    2.6300 MillCreekTP          32914011            
  LMC003C0044                1.67    381.43    100.00    1.8900 MillCreekTP          32913092            
  LMC003C0047                3.71    289.10    100.00    6.3000 MillCreekTP          32913086            
  LMC003C0046                5.33    274.76     80.00   18.8000 MillCreekTP          32913086            
  LMC003C0045                2.74    488.58    100.00    3.8200 MillCreekTP          32913043            
  LMC003C0042                3.41    996.91     66.28    1.3900 MillCreekTP          32913022            
  LMC003C0043                1.45    355.42     39.31    2.5100 MillCreekTP          32913014            
  LMC003C0004                6.51   4666.80     82.03    4.3400 MillCreekTP          32913012            
  LMC003C0041                1.94    411.11    100.00    3.2500 MillCreekTP          32913009            
  LMC003C0002               17.66   7885.80     56.21    4.6900 MillCreekTP          32913006            
  LMC003C0006                2.24    441.76     56.00    0.4500 MillCreekTP          32912055            
  LMC003C0005                3.75    469.28     56.00    3.1400 MillCreekTP          32912032            
  LMC003C0003                0.86    156.18     56.00    0.9000 MillCreekTP          32912029            
  LMC003C0001                4.00   1550.61     90.00    3.7600 MillCreekTP          32912022            
  LMC002C0001                1.51     72.04     46.78    3.2850 MillCreekTP          32910063            
  LMC002C0002                1.28     74.14     39.85    3.0450 MillCreekTP          32910050            
  LMC002C0003                6.64    285.76     36.04    2.0780 MillCreekTP          32910049            
  LMC002C0021                0.91    239.78     32.40   14.8700 MillCreekTP          32910045            
  LMC002C0022                0.53    151.33     24.46   10.4600 MillCreekTP          32910044            
  LMC002C0025                0.24     47.99     45.22   11.7600 MillCreekTP          32910021            
  LMC002C0026                6.57    299.18     19.22    5.0480 MillCreekTP          32910019            
  LMC002C0020                0.86    190.49     15.71    4.0280 MillCreekTP          32910012            
  LMC002C0019                0.91    194.38     15.86    4.8450 MillCreekTP          32910011            
  LMC002C0018                0.95    201.21     26.98    4.6730 MillCreekTP          32910010            
  LMC002C0005                8.21    264.60     37.94    3.3000 MillCreekTP          32910009            
  LMC002C0004               10.83    336.27     19.96    2.1000 MillCreekTP          32910008            
  LMC002C0030                2.36    241.75      6.46   24.5300 MillCreekTP          32909023            
  LMC003C0125                6.24   3913.20     32.05   15.4200 SpringGrove-CWW      32816021            
  LMC003C0103                8.09   3180.30     24.21    7.7900 SpringGrove-CWW      32816017            
  LMC003C0104                6.95   4929.30     22.39    5.1100 SpringGrove-CWW      32816015            
  LMC003C0105               11.35   5595.00     24.75   10.3300 SpringGrove-CWW      32816011            
  LMC003C0147                2.26    443.72     59.19    0.6000 SpringGrove-CWW      32816007            
  LMC003C0148                2.93    505.23     59.00    0.9600 SpringGrove-CWW      32816006            
  LMC003C0150                1.05    302.45     90.48    1.1400 SpringGrove-CWW      32816002            
  LMC003C0149                8.24   5328.30     42.32   16.5000 SpringGrove-CWW      32816001            
  LMC003C0084                2.24    441.76     40.11    3.7900 SpringGrove-CWW      32815020            
  LMC003C0093                0.42    191.29     76.98    3.7900 SpringGrove-CWW      32815018            
  LMC003C0091                2.05    422.61     56.11    3.7900 SpringGrove-CWW      32815015            
  LMC003C0092                1.24    328.68     25.45    3.3200 SpringGrove-CWW      32815006            
  LMC003C0074                6.01   3088.20     59.23    2.3200 SpringGrove-CWW      32814026            
  LMC003C0082                2.82   1153.20     95.00    2.3000 SpringGrove-CWW      32814024            
  LMC003C0081                0.34    172.11     97.05    3.3900 SpringGrove-CWW      32814019            
  LMC003C0079                1.25    330.00     72.80    4.2300 SpringGrove-CWW      32814009            
  LMC003C0073               15.15  11073.00     10.21    8.8400 SpringGrove-CWW      32814008            
  LMC003C0080                1.60    373.35     70.00    4.7700 SpringGrove-CWW      32814008            
  LMC003C0083               13.70   8191.80     44.89    2.0100 SpringGrove-CWW      32814006            
  LMC003C0085                8.85   6251.70     56.44    5.2100 SpringGrove-CWW      32814005            
  LMC003C0086                2.39    456.31     34.10   16.1300 SpringGrove-CWW      32814005            
  LMC003C0070                0.43    193.55     56.00    2.9000 SpringGrove-CWW      32813005            
  LMC003C0072                7.79   1070.45      9.88    9.8000 SpringGrove-CWW      32813001            
  LMC003C0071               10.52   6770.40     10.46    4.7000 SpringGrove-CWW      32812005            
  LMC003C0167                1.38    346.74     11.34    8.5800 SpringGrove-CWW      32812004            
  LMC003C0078                4.72   3501.00     56.00    9.6100 SpringGrove-CWW      32811019            
  LMC003C0077                7.12   1864.91     56.00    6.9300 SpringGrove-CWW      32811015            
  LMC003C0087                6.48   1001.51     56.00    8.6700 SpringGrove-CWW      32811002            
  LMC003C0090               10.40   5323.20     90.00    6.8200 SpringGrove-CWW      32810038            
  LMC003C0094               18.47   6182.40     48.82   11.8200 SpringGrove-CWW      32810039            
  LMC003C0089                0.81    265.64     56.00    4.5300 SpringGrove-CWW      32810020            
  LMC003C0088                2.26    443.72      5.00   20.9800 SpringGrove-CWW      32810019            
  LMC003C0096                2.06    423.64     66.40    7.0700 SpringGrove-CWW      32810014            
  LMC003C0095               10.09   1277.68     24.26    2.0700 SpringGrove-CWW      32810013            
  LMC003C0097                1.95    412.17     32.39   11.5700 SpringGrove-CWW      32810012            
  LMC003C0101                4.81    366.94     50.41   13.7300 SpringGrove-CWW      32810008            
  LMC003C0098               23.76   9424.20     35.49   20.5500 SpringGrove-CWW      32810007            
  LMC003C0128                1.01    296.63     81.19    3.1400 SpringGrove-CWW      32809039            
  LMC003C0122                0.97    290.70     35.06    0.5700 SpringGrove-CWW      32809036            
  LMC003C0102                3.61    459.80     31.79    2.4700 SpringGrove-CWW      32809032            
  LMC003C0106                8.41    992.79     30.47    8.4900 SpringGrove-CWW      32809031            
  LMC003C0107                0.94    286.17     69.43   10.9900 SpringGrove-CWW      32809031            
  LMC003C0108                1.40    349.24     32.01   10.6500 SpringGrove-CWW      32809022            
  LMC003C0109                5.38    736.96     35.04    8.4700 SpringGrove-CWW      32809020            
  LMC003C0111                5.56    605.48     57.73   11.1600 SpringGrove-CWW      32809017            
  LMC003C0127                0.19    128.66     85.00    6.4000 SpringGrove-CWW      32809014            
  LMC003C0124                1.72    387.10     29.84   18.6000 SpringGrove-CWW      32809012            
  LMC003C0123                5.97    476.29     39.10    5.3100 SpringGrove-CWW      32809011            
  LMC003C0121                2.62    477.76     66.40   29.0200 SpringGrove-CWW      32809003            
  LMC003C0118                0.03     51.12     59.50    5.0000 SpringGrove-CWW      32808042            
  LMC003C0110                1.85    344.37     25.70   13.7500 SpringGrove-CWW      32808034            
  LMC003C0114                3.74    573.64     67.72   12.4500 SpringGrove-CWW      32808033            
  LMC003C0113                3.82    552.82     31.67   15.5300 SpringGrove-CWW      32808029            
  LMC003C0100                0.13    106.42     27.83    8.5600 MillCreekTP          32808028            
  LMC003C0099               11.36   4712.70     57.70    5.9000 SpringGrove-CWW      32808027            
  LMC003C0112                0.92    283.11     31.22    4.6700 MillCreekTP          32808025            
  LMC003C0168               10.71   6658.20     20.87   10.8800 MillCreekTP          32808023            
  LMC003C0115                6.43   3303.00     29.10   13.9100 SpringGrove-CWW      32808021            
  LMC003C0116                0.08     83.48     75.00    4.5500 MillCreekTP          32808008            
  LMC003C0117                1.37    345.48     19.80   26.2000 MillCreekTP          32808004            
  LMC003C0076                3.03    835.36     47.92    1.2300 SpringGrove-CWW      32806014            
  LMC003C0075                2.71    485.90     44.56    1.1100 SpringGrove-CWW      32806012            
  LMC003C0039                1.68    382.57     52.74    4.4500 SpringGrove-CWW      32805032            
  LMC003C0068                6.18   1175.55     35.38    4.8700 SpringGrove-CWW      32805030            
  LMC003C0066               11.19   1531.24     45.46    6.3300 SpringGrove-CWW      32805018            
  LMC003C0069                0.44    195.79     10.00   17.1400 SpringGrove-CWW      32805020            
  LMC003C0062                0.82    267.28     22.99    2.3400 SpringGrove-CWW      32805010            
  LMC003C0067                3.47    311.01      8.65   10.8100 SpringGrove-CWW      32805007            
  LMC003C0065                2.84    449.48     14.44   13.2600 SpringGrove-CWW      32805006            
  LMC003C0064                8.30   3908.70      5.50    8.5300 SpringGrove-CWW      32805005            
  LMC003C0055                5.78   4703.70     80.00    9.2000 SpringGrove-CWW      32804037            
  LMC003C0053                9.71   4554.30     70.00    7.7300 SpringGrove-CWW      32804035            
  LMC003C0063                3.83   3305.40     83.81    4.6400 SpringGrove-CWW      32804031            
  LMC003C0058                5.71   3993.60     56.00    2.2100 SpringGrove-CWW      32804030            
  LMC003C0040                0.70    246.95     56.00    2.2400 SpringGrove-CWW      32804027            
  LMC003C0007               18.37   5142.30     56.00    3.7700 MillCreekTP          32804026            
  LMC003C0057                1.67    381.43     56.00    6.9500 SpringGrove-CWW      32804025            
  LMC003C0060                5.90   4789.20     70.68    8.0800 SpringGrove-CWW      32804018            
  LMC003C0059                3.12    410.60     68.95    7.9300 SpringGrove-CWW      32804016            
  LMC003C0054               11.08   1498.90     56.00    4.4000 SpringGrove-CWW      32804015            
  LMC003C0056                3.12    297.39     77.56    1.4000 SpringGrove-CWW      32804011            
  LMC003C0052                4.40    871.20     14.77    3.1700 SpringGrove-CWW      32803019            
  LMC003C0051                1.58    371.01     55.41    2.8200 SpringGrove-CWW      32803018            
  LMC003C0050                1.03    299.56     75.00    1.4000 MillCreekTP          32803015            
  LMC002C0010                4.15    218.35     33.71    2.5050 SpringGrove-CWW      32803005            
  LMC002C0011                0.70    169.35     38.26    3.9750 SpringGrove-CWW      32803004            
  LMC002C0009                0.79    154.51     21.06    0.7800 MillCreekTP          32803003            
  LMC002C0008                1.30    278.01     25.91    0.8325 MillCreekTP          32803002            
  LMC002C0006                9.28    332.46     34.29    5.3550 MillCreekTP          32803001            
  LMC002C0048                2.80    241.08      6.21    6.2480 MillCreekTP          32802028            
  LMC002C0015                2.32    177.37     29.70    7.2900 MillCreekTP          32802020            
  LMC002C0014                1.96    117.90     28.56    4.9430 MillCreekTP          32802019            
  LMC002C0012                1.07     96.31     25.47    9.6450 SpringGrove-CWW      32802014            
  LMC002C0038                6.93    414.11     26.18    3.2480 MillCreekTP          32802009            
  LMC002C0039                1.04    326.91     28.06    2.5050 MillCreekTP          32802008            
  LMC002C0040                0.99    248.95     23.18   14.4000 MillCreekTP          32802007            
  LMC002C0041                5.52    474.52     21.88    2.4670 MillCreekTP          32802006            
  LMC002C0042                2.75    545.97     26.07   15.6400 MillCreekTP          32802003            
  LMC002C0043                2.44    214.54     26.61   10.3100 MillCreekTP          32802001            
  LMC002C0044                1.02    231.24      9.33    9.5100 MillCreekTP          32801014            
  LMC002C0045                1.38    314.85     12.43   10.8500 MillCreekTP          32801013            
  LMC002C0072               12.22    370.81     23.51    2.2500 MillCreekTP          32801007            
  LMC002C0073                5.20    763.25     44.20    0.8175 MillCreekTP          32801002            
  LMC002C0074                1.10    231.83     10.39    0.5625 MillCreekTP          32801001            
  LMC005C0204                2.11     78.78     75.00    0.5500 SpringGrove-CWW      29608003            
  LMC005C0205                6.81    155.03     78.25    3.3400 SpringGrove-CWW      29608002            
  LMC003C0131                3.29    456.41     14.28   18.2900 SpringGrove-CWW      29606025            
  LMC003C0134                1.78    393.79     56.00    6.4400 SpringGrove-CWW      29606023            
  LMC003C0132                3.64    210.79     56.00    4.4700 SpringGrove-CWW      29605017            
  LMC003C0133                2.25    442.74     17.78   10.9500 SpringGrove-CWW      29605015            
  LMC003C0136                4.53    944.15     25.72   10.6000 SpringGrove-CWW      29605009            
  LMC003C0137                2.88    500.90     48.20   10.2700 SpringGrove-CWW      29605007            
  LMC003C0135                3.19    524.36     42.92   10.0500 SpringGrove-CWW      29605003            
  LMC005C0125                2.32     63.54     87.90    2.3800 SpringGrove-CWW      29603045            
  LMC003C0138                5.62    711.11     56.00    3.6700 SpringGrove-CWW      29604016            
  LMC003C0139                3.23    178.55     22.91   10.3500 SpringGrove-CWW      29604014            
  LMC003C0140                6.18   4691.70     53.67   13.9700 SpringGrove-CWW      29604010            
  LMC003C0141                7.63    319.57     28.69   11.8100 SpringGrove-CWW      29604007            
  LMC003C0143                1.90    406.85     55.87    0.5700 SpringGrove-CWW      29604005            
  LMC005C0134               10.00    192.70     95.00    1.1700 SpringGrove-CWW      29603053            
  LMC005C0126                6.60    209.36     76.22    3.1100 SpringGrove-CWW      29603046            
  LMC005C0114               16.95    279.93     77.07    2.2800 SpringGrove-CWW      29603025            
  LMC005C0118                5.42    121.03     95.00    1.7100 SpringGrove-CWW      29603023            
  LMC005C0130                5.36    122.53     83.20    3.5700 SpringGrove-CWW      29603019            
  LMC005C0136                3.90     94.54    100.00    1.7400 SpringGrove-CWW      29603018            
  LMC005C0129                6.17    143.38    100.00    4.8400 SpringGrove-CWW      29603014            
  LMC005C0131                0.50     23.64    100.00    1.2300 SpringGrove-CWW      29603008            
  LMC005C0135                2.91    227.81     92.80    1.8000 SpringGrove-CWW      29603003            
  LMC005C0137               19.32    304.67     75.68    0.4600 SpringGrove-CWW      29602002            
  LMC005C0138                4.08   2864.06     44.58    0.1300 SpringGrove-CWW      29602001            
  LMC005C0227                0.57     67.34      0.50    3.0600 SpringGrove-CWW      29601028            
  LMC005C0211                9.27    149.98     58.11    6.6600 SpringGrove-CWW      29601016            
  LMC005C0222                2.05     80.94     79.31    2.7500 SpringGrove-CWW      29601015            
  LMC005C0226                6.89    159.60     75.00    2.4500 SpringGrove-CWW      29601006            
  LMC005C0223                2.48     83.39     79.68    4.7700 SpringGrove-CWW      29601005            
  LMC005C0224                2.24     89.97     65.31    0.6400 MillCreekTP          29601001            
  LMC005C0263                0.31     24.41     75.00    7.7300 MillCreekTP          29516018            
  LMC005C0225                2.59    271.09     40.42    5.0000 MillCreekTP          29516016            
  LMC005C0260                1.40    105.53     58.74   15.9000 MillCreekTP          29516012            
  LMC005C0218                1.08    135.46     80.00    3.7000 MillCreekTP          29516007            
  LMC005C0217                3.88    129.05     80.00    2.6000 MillCreekTP          29516005            
  LMC005C0254                5.12    194.20     17.60   18.2000 MillCreekTP          29516001            
  LMC005C0127                7.40    238.11     59.80    0.8300 SpringGrove-CWW      29514053            
  LMC005C0124                9.55    291.93     67.10    1.7300 SpringGrove-CWW      29514051            
  LMC005C0122                5.89    153.10     51.41    1.5700 SpringGrove-CWW      29514040            
  LMC005C0128                6.14    152.44     95.00    2.2300 SpringGrove-CWW      29514035            
  LMC005C0132               12.67    392.51     90.00    1.5100 SpringGrove-CWW      29514022            
  LMC005C0142                6.38    127.98     90.00    1.3500 SpringGrove-CWW      29514014            
  LMC005C0133                4.99    142.40    100.00    0.7900 SpringGrove-CWW      29514012            
  LMC003C0151                8.23   1149.03     90.16    0.8700 SpringGrove-CWW      29513020            
  LMC003C0145                0.99    293.68     59.04   15.2300 SpringGrove-CWW      29513028            
  LMC003C0142                6.43    348.06     46.91   10.6900 SpringGrove-CWW      29513026            
  LMC003C0144                0.99    293.68     85.86    0.5900 SpringGrove-CWW      29513025            
  LMC003C0146                0.81    265.64     69.10    2.7900 SpringGrove-CWW      29513024            
  LMC005C0123               10.89    346.68     80.03    2.0300 SpringGrove-CWW      29513013            
  LMC003C0154                2.20    437.79     64.66    0.8200 SpringGrove-CWW      29512034            
  LMC003C0156                2.41    458.21     23.19    4.7000 SpringGrove-CWW      29512031            
  LMC003C0152                3.68    989.51     56.00    5.6600 SpringGrove-CWW      29512016            
  LMC003C0129                1.26    331.32     75.60   10.0000 SpringGrove-CWW      29512028            
  LMC003C0126                1.55    367.47     37.52    6.3100 SpringGrove-CWW      29512022            
  LMC003C0130                3.78   2615.40     87.04    5.9100 SpringGrove-CWW      29512018            
  LMC003C0153                2.61    476.85     56.00    1.6200 SpringGrove-CWW      29512015            
  LMC003C0155                0.77    259.00     56.00    4.4400 SpringGrove-CWW      29512005            
  LMC003C0158                0.87    275.31     35.60    2.7200 SpringGrove-CWW      29512004            
  LMC003C0157                3.82    773.95     54.18    0.6100 MillCreekTP          29512003            
  LMC003C0163                1.44    354.19     51.67    1.2000 MillCreekTP          29511034            
  LMC003C0162                5.90    803.14     91.52    3.5000 MillCreekTP          29511033            
  LMC005C0143                4.23     97.45     80.00    1.2100 SpringGrove-CWW      29511022            
  LMC003C0164                2.17    434.80     62.16    2.6000 SpringGrove-CWW      29511020            
  LMC003C0165                0.12    102.25    100.00    1.2300 SpringGrove-CWW      29511020            
  LMC005C0141                1.82     62.83     54.05    2.8100 SpringGrove-CWW      29511020            
  LMC005C0144                0.84     56.21     75.00    5.0000 SpringGrove-CWW      29511019            
  LMC005C0145                2.76    113.51     75.00    0.7500 MillCreekTP          29511017            
  LMC005C0146                6.62    125.39     70.77    1.7900 MillCreekTP          29511017            
  LMC005C0149                5.11    104.73     95.00    0.5600 MillCreekTP          29511007            
  LMC005C0151               15.33    382.12     85.00    0.4600 MillCreekTP          29510003            
  LMC005C0152                6.96    198.14     97.41    0.1600 MillCreekTP          29509042            
  LMC005C0262                1.49     82.73     35.76    4.5800 MillCreekTP          29509027            
  LMC005C0261                1.24     67.57     25.86    9.5000 MillCreekTP          29509025            
  LMC005C0259                4.18    150.80     39.67   14.8600 MillCreekTP          29509020            
  LMC005C0258               13.91    496.41     20.27   10.8900 MillCreekTP          29509013            
  LMC005C0266                9.51    193.83     18.66   16.1100 MillCreekTP          29508041            
  LMC005C0265                5.05    184.27     18.55    8.2500 MillCreekTP          29508039            
  LMC005C0267                9.11    281.54     11.05    9.9500 MillCreekTP          29508036            
  LMC005C0373                3.94    137.45     20.93    5.2300 MillCreekTP          29508034            
  LMC005C0374                4.30    129.93     17.35    5.0600 MillCreekTP          29508032            
  LMC005C0377                0.92     85.37     20.80    5.0000 MillCreekTP          29508031            
  LMC005C0356                0.40    186.68     24.00    5.0000 MillCreekTP          29508015            
  LMC005C0355                1.74    194.11     11.68   11.3700 MillCreekTP          29508010            
  LMC005C0354                2.18    155.07     17.52   13.6000 MillCreekTP          29508008            
  LMC005C0382                6.08    133.03     35.66    8.2000 MillCreekTP          29507018            
  LMC005C0153                2.25    354.38     90.22    5.0000 MillCreekTP          29507017            
  LMC005C0150               19.06    451.05     75.39    1.1500 MillCreekTP          29507009            
  LMC003C0161                2.63    478.67     95.00    1.0800 MillCreekTP          29506042            
  LMC003C0160                1.38    346.74     65.43    1.1700 MillCreekTP          29506040            
  LMC003C0159                1.19    321.98     94.10    0.5300 MillCreekTP          29506038            
  LMC005C0147                0.39     32.94     66.26    6.1300 MillCreekTP          29506017            
  LMC005C0148                2.95    119.19     71.98    1.1300 MillCreekTP          29506016            
  LMC003C0119                0.48    204.49     44.46    3.5800 MillCreekTP          29505031            
  LMC003C0120                1.26    331.32     61.50    8.8500 MillCreekTP          29505029            
  LMC002C0091                6.80    477.02     33.61    1.8000 MillCreekTP          29504025            
  LMC002C0098                0.85    216.50     37.42    3.9000 MillCreekTP          29504023            
  LMC002C0099                3.71    322.23     43.22    3.5330 MillCreekTP          29504021            
  LMC002C0092                5.14    227.07     31.40    1.4250 MillCreekTP          29504018            
  LMC002C0100                1.29    218.46     41.46    3.9000 MillCreekTP          29504017            
  LMC002C0106                1.32    189.34     46.36    1.0280 MillCreekTP          29504016            
  LMC002C0104                1.81    227.70     45.98    1.8750 MillCreekTP          29504015            
  LMC002C0093                5.16    196.41     31.21    1.7100 MillCreekTP          29504014            
  LMC002C0107                1.61    297.96     45.63    2.1000 MillCreekTP          29504013            
  LMC002C0108                1.25    219.06     42.36    0.9300 MillCreekTP          29504012            
  LMC002C0109                1.81    240.97     34.46    2.2200 MillCreekTP          29504011            
  LMC002C0094                2.48    146.22     39.44    3.1200 MillCreekTP          29504010            
  LMC002C0110                0.70    113.71     38.96    1.1100 MillCreekTP          29504009            
  LMC002C0111                0.83    132.83     40.15    1.3500 MillCreekTP          29504008            
  LMC002C0112                1.01    246.77     45.65    2.1680 MillCreekTP          29504006            
  LMC002C0113                0.92    149.40     45.52    1.8000 MillCreekTP          29504005            
  LMC002C0097               14.66    424.15     45.91    2.9250 MillCreekTP          29503024            
  LMC002C0096                6.21    189.19     46.76    2.3250 MillCreekTP          29503023            
  LMC002C0116                3.94    253.81     46.08    1.0650 MillCreekTP          29503018            
  LMC002C0095                5.60    360.54     46.41    0.7725 MillCreekTP          29503013            
  LMC002C0120                0.29     86.33     46.41    0.7050 MillCreekTP          29503011            
  LMC002C0118                0.77     68.90     46.41    0.5550 MillCreekTP          29503004            
  LMC002C0119                1.91    284.23     46.41    0.6075 MillCreekTP          29503003            
  LMC005C0155                6.25    312.86     47.60    0.7125 MillCreekTP          29414002            
  LMC005C0421                3.40    143.90     52.57    1.1200 MillCreekTP          29502007            
  LMC005C0375                2.76    111.85     21.73    3.7500 MillCreekTP          29501040            
  LMC005C0360                5.15    154.24     17.01    6.3100 MillCreekTP          29501039            
  LMC005C0372                2.43     73.19     14.20    5.0000 MillCreekTP          29501038            
  LMC005C0376                3.51     79.38     24.15    6.4500 MillCreekTP          29501037            
  LMC005C0381                1.98     51.89     18.07   17.2700 MillCreekTP          29501035            
  LMC005C0380                1.32     95.99     24.08    8.8100 MillCreekTP          29501019            
  LMC005C0379                2.87    114.34      8.65   15.8700 MillCreekTP          29501017            
  LMC005C0378                4.40    267.18     15.65   25.6800 MillCreekTP          29501015            
  LMC005C0367                4.67    183.97      3.74   17.7300 MillCreekTP          29501011            
  LMC005C0156                7.93    212.84     47.60    0.3750 MillCreekTP          29414002            
  LMC005C0430                0.16     26.09     31.25    5.0000 MillCreekTP          29415044            
  LMC005C0428                1.91     98.02     65.16    0.8700 MillCreekTP          29415027            
  LMC005C0429                2.03    131.74     35.67    2.0600 MillCreekTP          29415026            
  LMC005C0154               18.33    221.52     36.35    0.9750 MillCreekTP          29414002            
  LMC002C0117                2.10    274.49     46.05    0.3450 MillCreekTP          29414006            
  LMC002C0121                0.49     68.92     68.25    0.9600 MillCreekTP          29414004            
  LMC002C0122                2.35    278.29     68.25    0.9600 MillCreekTP          29414002            
  LMC002C0102               10.64     56.00     35.41    3.9750 MillCreekTP          29413042            
  LMC002C0103                4.73    777.44     47.34   12.6900 MillCreekTP          29413040            
  LMC002C0105                2.89    347.03     40.54    4.0880 MillCreekTP          29413039            
  LMC002C0115                3.05    417.08     47.45    1.3650 MillCreekTP          29413035            
  LMC002C0087                6.70    862.99     44.42    1.6200 MillCreekTP          29413023            
  LMC002C0086                3.15    189.69     26.61    3.2250 MillCreekTP          29413014            
  LMC002C0084                2.94    260.51     46.41    0.9675 MillCreekTP          29413013            
  LMC002C0085                1.37    183.59     46.75    0.9075 MillCreekTP          29413012            
  LMC002C0090                1.55    264.63     46.41    0.3675 MillCreekTP          29413011            
  LMC002C0089                1.65    267.12     46.41    4.1250 MillCreekTP          29413010            
  LMC002C0082                8.37    349.45     42.97    0.8475 MillCreekTP          29413009            
  LMC002C0088                3.96    391.24     46.41    0.6750 MillCreekTP          29413006            
  LMC002C0081                0.97     40.47     47.60    0.6825 MillCreekTP          29413003            
  LMC002C0067                5.54    372.04     28.27    1.0500 MillCreekTP          29412043            
  LMC002C0083                2.54    246.00     38.61    3.5250 MillCreekTP          29412031            
  LMC005C0161                2.16    101.28     65.55    6.4600 MillCreekTP          29412008            
  LMC005C0173                3.53    102.36     82.40    4.9000 MillCreekTP          29412004            
  LMC005C0157                3.14    117.14     95.00    3.1000 MillCreekTP          29411017            
  LMC005C0158                4.44    563.74     94.10    1.6300 MillCreekTP          29411016            
  LMC005C0175                2.97    126.95     88.90    1.6200 MillCreekTP          29411009            
  LMC005C0174                7.58    183.30     82.70    3.3000 MillCreekTP          29411007            
  LMC005C0176                2.55     61.15     50.20    2.8700 MillCreekTP          29411006            
  LMC005C0177                2.04     94.13     98.00    1.2000 MillCreekTP          29411005            
  LMC005C0184               13.51    410.20     95.00    0.8100 MillCreekTP          29411005            
  LMC005C0185                6.53    225.02     92.34    0.2400 MillCreekTP          29411005            
  LMC005C0186                2.96    232.74     91.49    4.0000 MillCreekTP          29406004            
  LMC005C0172                9.71    193.53     76.46    0.6900 MillCreekTP          29406007            
  LMC005C0183               12.18    194.55     95.00    0.6100 MillCreekTP          29406004            
  LMC005C0160                7.38    130.98     47.61    6.4000 MillCreekTP          29405037            
  LMC005C0159                2.01    155.65     34.30    4.3000 MillCreekTP          29405033            
  LMC005C0170               19.04    551.97     55.90    0.7700 MillCreekTP          29405024            
  LMC005C0162                5.17    140.57     49.20    4.2100 MillCreekTP          29404053            
  LMC005C0164                1.94     61.44     53.23    5.3000 MillCreekTP          29404048            
  LMC005C0163                1.06     64.27     33.00   27.5000 MillCreekTP          29404046            
  LMC005C0167                1.41     55.93     81.03    2.1100 MillCreekTP          29404041            
  LMC005C0166                0.62     33.34     86.77    5.7000 MillCreekTP          29404039            
  LMC005C0168                1.01     41.24     83.52    4.0000 MillCreekTP          29404018            
  LMC005C0169                1.28     75.80     76.60    4.3700 MillCreekTP          29404016            
  LMC005C0171                6.55    229.36     58.60    5.0000 MillCreekTP          29404011            
  LMC005C0179                2.89    224.96     94.40    2.6700 MillCreekTP          29403048            
  LMC005C0190                0.82     50.43    100.00    1.0800 MillCreekTP          29403037            
  LMC005C0182                2.80    114.61     75.00    7.6400 MillCreekTP          29403028            
  LMC005C0178                1.88    158.74     75.58    0.8300 MillCreekTP          29403035            
  LMC005C0180                3.42    169.75     75.00    1.1700 MillCreekTP          29403048            
  LMC005C0189                0.38    104.20     75.00    0.6800 MillCreekTP          29403028            
  LMC005C0181                3.24     79.52     76.05    0.5800 MillCreekTP          29403011            
  LMC005C0188                4.17    120.48     78.85    0.6200 MillCreekTP          29403005            
  LMC005C0191                2.80     80.53     75.84    1.7100 MillCreekTP          29403027            
  LMC005C0446                0.36     33.65     64.88    5.0000 MillCreekTP          29402024            
  LMC005C0445                1.24    190.47     72.77    5.1300 MillCreekTP          29402023            
  LMC005C0435                2.05    131.91     68.57    1.3900 MillCreekTP          29402022            
  LMC005C0434                0.82     70.81     47.65    3.2400 MillCreekTP          29402020            
  LMC005C0433                0.36     82.40     95.08    2.4700 MillCreekTP          29402018            
  LMC005C0444                1.08     73.20     57.36    8.1200 MillCreekTP          29402015            
  LMC005C0436                1.39    153.96     44.44    6.8300 MillCreekTP          29402011            
  LMC005C0437                0.42     39.84     26.84   20.8000 MillCreekTP          29402007            
  LMC005C0438                5.62    362.40     58.50   20.8000 MillCreekTP          29402006            
  LMC005C0443                3.55    358.17     74.99    7.5700 MillCreekTP          29315009            
  LMC005C0442                1.87    134.30     21.00    4.4500 MillCreekTP          29315008            
  LMC005C0441                1.78    157.50     38.20   28.9000 MillCreekTP          29315006            
  LMC005C0440                4.34    131.02     35.97   29.4000 MillCreekTP          29315004            
  LMC005C0187                1.35    146.68    100.00    0.4000 MillCreekTP          29314036            
  LMC005C0453                2.02     98.90     28.50   11.1500 MillCreekTP          29309008            
  LMC005C0452                2.93     96.80     18.75    9.6000 MillCreekTP          29309006            
  LMC005C0454                1.64    103.90     15.75    6.9300 MillCreekTP          29309005            
  LMC005C0451                4.03    169.40      8.53    7.4000 MillCreekTP          29309002            
  LMC005C0450                2.64    331.70     13.39    7.5000 MillCreekTP          29309001            
  LMC005C0457                4.08    100.02     56.18    4.5100 MillCreekTP          29308019            
  LMC005C0449                2.65    203.20      4.24    9.0000 MillCreekTP          29308014            
  LMC005C0448                1.69    199.10      9.30    8.2500 MillCreekTP          29308013            
  LMC005C0447                7.05     96.30      3.76   10.0000 MillCreekTP          29308012            
  LMC005C0462                3.62    109.37     77.88    0.4400 MillCreekTP          29301014            
  LMC005C0458                1.28     65.62     75.00   10.0000 MillCreekTP          29301012            
  LMC005C0461                0.97     91.45     95.00    1.0300 MillCreekTP          29301008            
  LMC005C0460                2.16     76.24     95.00    0.9900 MillCreekTP          29301007            
  LMC005C0459                0.77     83.41     95.00    0.9200 MillCreekTP          29216016            
  LMC005C0305               12.21    299.29      2.50   15.4400 MillCreekTP          28614026            
  LMC005C0338                0.95     76.99     28.30    6.6200 MillCreekTP          28614022            
  LMC005C0337                1.65    100.85     12.81    0.5700 MillCreekTP          28614020            
  LMC005C0336                0.85     61.86     13.83    1.7300 MillCreekTP          28614018            
  LMC005C0363               13.37   1283.66      5.80   11.8200 MillCreekTP          28613038            
  LMC005C0365                2.58   1493.64      5.06   14.5000 MillCreekTP          28613031            
  LMC005C0364                1.62     83.70     10.96   12.2500 MillCreekTP          28613025            
  LMC005C0340                4.28    180.18     18.59    6.9500 MillCreekTP          28613017            
  LMC005C0362                5.87    112.59     36.15    3.9000 MillCreekTP          28613008            
  LMC005C0361                3.29    137.19     18.17    5.3700 MillCreekTP          28613007            
  LMC005C0339                0.64    105.77     35.08    5.6100 MillCreekTP          28613001            
  LMC005C0309                9.34    467.61      6.40    4.6000 MidwaySchool         28516006            
  LMC005C0308                7.63    167.92     11.10   11.9300 MidwaySchool         28516004            
  LMC005C0307               12.53    272.23     16.16   19.4100 MidwaySchool         28516002            
  LMC005C0249                8.70    183.30     20.59    6.0400 MillCreekTP          28515016            
  LMC005C0252                7.34    125.55     39.98   11.7100 MillCreekTP          28515014            
  LMC005C0248                9.12    239.76     11.74    3.4800 MidwaySchool         28515013            
  LMC005C0313               11.61   1449.79     13.13   14.1000 MidwaySchool         28515009            
  LMC005C0312                1.52    347.21     10.50   23.6000 MillCreekTP          28515006            
  LMC005C0311                9.23    254.79     10.82   10.0500 MidwaySchool         28515005            
  LMC005C0310                8.92    320.14     19.45    4.2200 MidwaySchool         28515002            
  LMC005C0251                2.80    143.69     24.35    0.8600 MillCreekTP          28514012            
  LMC005C0316                2.38    121.53     34.65    1.1600 MillCreekTP          28514008            
  LMC005C0216                2.32    122.91     80.00    4.3700 MillCreekTP          28513021            
  LMC005C0215                2.35    147.86     80.00    5.0000 MillCreekTP          28513019            
  LMC005C0214                3.25    132.07      6.15   39.6000 MillCreekTP          28513016            
  LMC005C0253                6.36    108.32     17.60   26.6000 MillCreekTP          28513012            
  LMC005C0207               28.12    697.53     66.00    5.7000 MillCreekTP          28513007            
  LMC005C0264                3.29     67.69     80.00    4.4500 MillCreekTP          28512034            
  LMC005C0257                7.20    119.70     26.90    9.0100 MillCreekTP          28512027            
  LMC005C0256                1.01     67.92     35.60    1.0400 MillCreekTP          28512014            
  LMC005C0255                5.18    147.02     32.50    9.2000 MillCreekTP          28512013            
  LMC005C0318                1.75    148.60     24.10    0.9100 MillCreekTP          28512004            
  LMC005C0319                1.36    108.09     20.20    6.5900 MillCreekTP          28512003            
  LMC005C0320                2.95    168.61     21.70    7.8400 MillCreekTP          28512001            
  LMC005C0317                2.02     93.08     22.85    0.7100 MillCreekTP          28511022            
  LMC005C0314               47.10    871.25     14.60   16.4000 MidwaySchool         28511019            
  LMC005C0315               23.37    874.70     11.55   11.4600 MillCreekTP          28511018            
  LMC005C0325               11.81    678.00     35.91    4.7500 MillCreekTP          28511014            
  LMC005C0324                2.40    135.97     39.05   12.7500 MillCreekTP          28511007            
  LMC005C0326                0.00     15.73     20.62    3.4800 MillCreekTP          28511007            
  LMC005C0323                1.26     76.58     15.96   15.8700 MillCreekTP          28511005            
  LMC005C0322                8.72   1972.85      5.75   18.8800 MidwaySchool         28511001            
  LMC005C0297               15.34    174.22     10.62    5.3200 MidwaySchool         28508013            
  LMC005C0298                2.35    262.18     20.75   13.6900 MidwaySchool         28508012            
  LMC005C0299                3.39    213.45     16.61   10.5000 MidwaySchool         28508004            
  LMC005C0296                7.95    181.75     18.09    9.7700 MidwaySchool         28508003            
  LMC005C0295               20.48    294.07     14.35    9.6600 MidwaySchool         28508002            
  LMC005C0332                5.65    392.96     24.57   12.4500 MillCreekTP          28506027            
  LMC005C0333               13.97    236.88     14.66   25.5000 MillCreekTP          28506022            
  LMC005C0327                4.57    279.90     15.44   19.6000 MillCreekTP          28506021            
  LMC005C0328                7.22    201.63     10.14   14.6000 MillCreekTP          28506020            
  LMC005C0329                9.21    179.46     15.95   12.1800 MillCreekTP          28506018            
  LMC005C0330                1.10     65.95     18.50    4.3800 MillCreekTP          28506016            
  LMC005C0331                3.94    401.65     11.44   25.4000 MillCreekTP          28506013            
  LMC005C0348                2.42     49.76     20.36    5.0000 MillCreekTP          28505002            
  LMC005C0349                2.47    120.60     18.33    9.7000 MillCreekTP          28505043            
  LMC005C0352                1.10     61.02     10.50   18.3000 MillCreekTP          28505039            
  LMC005C0353                0.13      8.80     50.00    3.4300 MillCreekTP          28505033            
  LMC005C0350                5.54    144.08     12.97   16.5000 MillCreekTP          28505030            
  LMC005C0351                0.57     70.24     24.00    3.1800 MillCreekTP          28505030            
  LMC005C0321                4.32     79.05     26.95    7.8500 MillCreekTP          28505022            
  LMC005C0359                2.97    204.84     14.28    8.0700 MillCreekTP          28505016            
  LMC005C0335                3.39    162.70     17.82    6.2800 MillCreekTP          28505004            
  LMC005C0371                6.50    132.36     27.09   20.0000 MillCreekTP          28504037            
  LMC005C0370                2.24     93.66     29.79    1.4300 MillCreekTP          28504035            
  LMC005C0357                7.38    203.60     21.90    8.4300 MillCreekTP          28504034            
  LMC005C0358                2.59    120.63     24.96    2.2300 MillCreekTP          28504034            
  LMC005C0368                4.68    357.13      8.20   13.4000 MillCreekTP          28504028            
  LMC005C0369                2.88    155.94     16.61    7.6000 MillCreekTP          28504027            
  LMC005C0347                9.08    156.13     15.58   13.9600 MillCreekTP          28504026            
  LMC005C0346                8.26    355.03     15.99   16.8000 MillCreekTP          28504022            
  LMC005C0345                1.03    123.80     19.68    9.5800 MillCreekTP          28504021            
  LMC005C0366               10.33    263.56     15.20   11.7400 MillCreekTP          28504018            
  LMC005C0342                0.90     57.93      0.00   12.4700 MillCreekTP          28504005            
  LMC005C0343                0.69     60.20      0.00   22.7800 MillCreekTP          28504003            
  LMC005C0341                1.46     69.97     10.50   15.7400 MillCreekTP          28504001            
  LMC005C0334                3.30    188.53     28.84   19.8000 MillCreekTP          28503015            
  LMC005C0344                1.05    155.16     35.38    5.0000 MillCreekTP          28503010            
  LMC005C0306               23.52    462.85     16.93    8.8100 MillCreekTP          28503007            
  LMC005C0304               24.13    552.65      2.50    9.2100 MillCreekTP          28502014            
  LMC005C0303               12.59    679.29      2.50    8.8500 MillCreekTP          28502012            
  LMC005C0302               18.01    502.79      6.22   13.7700 MillCreekTP          28502011            
  LMC005C0301                3.35    225.47      2.50   15.6000 MillCreekTP          28502010            
  LMC005C0300                9.51    237.41      4.15   15.7000 MillCreekTP          28501026            
  LMC005C0229                2.23     82.38     20.39    2.1200 MidwaySchool         28410006            
  LMC005C0235                9.45    204.43     16.14    9.9200 MidwaySchool         28410001            
  LMC005C0230                1.67    108.67     17.13   13.1700 MidwaySchool         28409007            
  LMC005C0231                1.30    137.02     30.55    2.8600 MidwaySchool         28409005            
  LMC005C0232                1.63    145.65     23.04    1.8000 MidwaySchool         28409003            
  LMC005C0233                0.50     99.68     40.00    0.7100 MidwaySchool         28409001            
  LMC005C0234                1.98     54.72     18.05    1.8900 MidwaySchool         28408008            
  LMC005C0228               19.79    219.94     15.26    5.5900 MidwaySchool         28407009            
  LMC005C0237                9.35    304.01     11.30    9.8100 MidwaySchool         28407006            
  LMC005C0236               24.82    550.96     21.95   12.0000 MidwaySchool         28407002            
  LMC005C0203               42.91    287.88     59.27    9.6900 SpringGrove-CWW      28405009            
  LMC005C0206               31.59   1080.48      2.50   24.8500 SpringGrove-CWW      28404021            
  LMC005C0220                1.30     81.87     80.00    1.7200 SpringGrove-CWW      28404014            
  LMC005C0221                1.32    129.57     80.00    6.7600 MillCreekTP          28404013            
  LMC005C0219                1.98     63.46     80.00    5.7100 MillCreekTP          28404012            
  LMC005C0212                1.41     80.01     80.00    1.1400 SpringGrove-CWW      28404010            
  LMC005C0209                3.22     96.19     25.50   23.3000 MillCreekTP          28404005            
  LMC005C0210                7.34    160.97     12.80   19.5000 MillCreekTP          28404004            
  LMC005C0213                3.44    126.21     22.70    9.0300 MillCreekTP          28404003            
  LMC005C0208                1.92    569.70      0.00   27.5000 MillCreekTP          28404001            
  LMC005C0247                2.61     95.28      7.17    9.8000 MidwaySchool         28402017            
  LMC005C0239                8.65    119.81     24.35    8.9000 MidwaySchool         28402016            
  LMC005C0246                1.51    145.97     13.03   11.2600 MidwaySchool         28402016            
  LMC005C0244                2.20    149.55     21.75    8.1600 MidwaySchool         28402015            
  LMC005C0243                1.50     89.36     28.16    9.4000 MidwaySchool         28402014            
  LMC005C0245               11.20    145.16     19.82    8.1300 MidwaySchool         28402012            
  LMC005C0250               25.76    285.40     35.53   12.6000 MidwaySchool         28402009            
  LMC005C0242                2.47    126.61     20.93   10.6000 MidwaySchool         28401017            
  LMC005C0241                3.70    184.13     21.48   10.6000 MidwaySchool         28401015            
  LMC005C0240                8.65   1139.74      2.50   10.8000 MidwaySchool         28401013            
  LMC005C0268               16.76    287.19     13.71    5.5300 MidwaySchool         28401004            
  LMC005C0273               17.81    246.82     12.80   10.4200 MidwaySchool         25214008            
  LMC005C0270               15.76    397.78     10.50    8.7700 MidwaySchool         25213012            
  LMC005C0271                2.49    115.58     10.50   16.7700 MidwaySchool         25213010            
  LMC005C0275                2.49    218.53     13.69    3.4400 MidwaySchool         25213009            
  LMC005C0272                3.96    275.21     10.81    5.0700 MidwaySchool         25213005            
  LMC005C0274                4.69    464.88     20.74    8.1800 MidwaySchool         25213003            
  LMC005C0279                1.12     40.21     17.41    7.6700 MidwaySchool         25212021            
  LMC005C0281                8.35    195.02     10.63   11.0000 MidwaySchool         25212019            
  LMC005C0286                7.29    297.03     13.82   11.4600 MidwaySchool         25212017            
  LMC005C0278                1.83    115.32     21.70    7.9300 MidwaySchool         25212014            
  LMC005C0277                9.23   1852.54      1.65    5.8000 MidwaySchool         25212013            
  LMC005C0285                1.89    248.14     15.02    7.1000 MidwaySchool         25212007            
  LMC005C0280                2.45    215.00     16.88   15.8800 MidwaySchool         25212005            
  LMC005C0282                0.60     73.88     15.77   12.1900 MidwaySchool         25212003            
  LMC005C0284                0.92     71.45     20.02    2.6400 MidwaySchool         25212002            
  LMC005C0283                1.48    108.88     20.71    9.2500 MidwaySchool         25212001            
  LMC005C0276               12.79    258.67     22.09    5.5100 MidwaySchool         25211017            
  LMC005C0269               16.94    144.75     12.49    4.5500 MidwaySchool         25205030            
  LMC005C0294                9.78    209.32     21.65    5.8800 MidwaySchool         25205027            
  LMC005C0290                1.31     56.80     23.14   12.5600 MidwaySchool         25205025            
  LMC005C0292                1.31     86.17      2.50   11.2000 MidwaySchool         25205024            
  LMC005C0287                7.84    153.52     15.59    6.2100 MidwaySchool         25205023            
  LMC005C0293                0.23     36.62     10.50   11.2800 MidwaySchool         25205021            
  LMC005C0289                1.34    315.00      3.25   11.5000 MidwaySchool         25205019            
  LMC005C0291                1.40    293.43      3.25   11.5000 MidwaySchool         25205019            
  LMC005C0288                1.43    139.78     18.73   13.7200 MidwaySchool         25204026            
  LMC003C0026                0.09     20.00     25.00    1.5000 SpringGrove-CWW      33716018            
  LMC003C0022                0.31     30.00     50.00    1.5000 SpringGrove-CWW      33716018            
  LMC003C0030                0.44     40.00     50.00    1.5000 SpringGrove-CWW      33716019            
  QCAS-1                    19.82    691.00      8.25    0.5000 MillCreekTP          29408051            
  QCAS-6                    24.89   2891.00     42.29    0.5000 MillCreekTP          28605029B           
  QCAS-2                     8.11    353.00      8.25    0.5000 MillCreekTP          29407022            
  QCANCSO-4                 53.93   1566.00     39.76    5.0000 MidwaySchool         23904011            
  FA-5                      25.30    630.00     30.67    5.0000 MidwaySchool         25206008            
  FA-4                      18.00    627.00     28.11    5.0000 MidwaySchool         25203007            
  SA-6                      24.69    143.00      8.54    5.0000 MidwaySchool         25107004            
  WA-2                      16.27    142.00     29.04    5.0000 MidwaySchool         25105005            
  SA-13                      8.26    206.00     27.47    5.0000 MidwaySchool         25101005            
  SA-12                     55.41   4827.00     21.26    5.0000 MidwaySchool         25101007            
  QRCSO-1                   15.53    902.00     49.11    5.0000 MillCreekTP          28716009            
  QCASCSO-7                 27.89   1350.00     36.70    5.5000 MidwaySchool         25113024            
  QCAN-8                    18.22    397.00     74.76    6.0000 MidwaySchool         25116011            
  SA-7                      27.94    811.00     16.97    6.0000 MidwaySchool         25107010            
  QR-2                      39.13    682.00     13.24    6.0000 MillCreekTP          28607001            
  GA-4                      43.08    272.00      1.13    6.0000 MillCreekTP          28713003            
  GA-9                      22.32   1945.00     26.80    6.0000 MillCreekTP          28711005            
  WS-4                       4.57    159.00     69.56    6.5000 MillCreekTP          28606033            
  QCAS-7                     9.68    422.00     18.55    6.5000 MillCreekTP          28605015            
  QR-10                     20.14   1170.00     22.61    6.5000 MillCreekTP          28708025            
  FA-2                      27.18    474.00     23.04    7.0000 MidwaySchool         25114006            
  FA-1                      20.55    895.00     17.30    7.0000 MidwaySchool         25114011            
  SA-4                      18.26    318.00      8.55    7.0000 MidwaySchool         25111007            
  SA-8                      45.74    996.00     27.07    7.0000 MidwaySchool         25102003            
  WS-6                      14.26    621.00     50.97    7.0000 MillCreekTP          28610019            
  FA-3                      28.03   2442.00     23.29    7.5000 MidwaySchool         25203002            
  WS-7                      11.81    412.00     39.57    7.5000 MillCreekTP          28615009            
  QCAN-11                   14.95    163.00     66.00    7.5000 MidwaySchool         24014011            
  WA-4                       6.06    211.00     45.83    7.5000 MillCreekTP          25104011            
  WS-8                      21.16    614.00     45.02    8.0000 MillCreekTP          28610005            
  WA-5                      16.00    398.00     48.42    8.0000 MillCreekTP          25104006            
  QR-9                      11.68    226.00     36.95    8.0000 MillCreekTP          28709020            
  QCAN-7                    17.29    376.00     32.24    8.5000 MidwaySchool         25115014            
  QCAS-13                   20.95    912.00     16.80    8.5000 MidwaySchool         25112015            
  QR-3                      24.11    210.00     13.49    8.5000 MillCreekTP          28602010            
  GA-7                      31.42    547.00     26.80    8.5000 MillCreekTP          28604004            
  QCASCSO-2                 19.18   2228.00     40.04    9.0000 MillCreekTP          28605036            
  QR-4                      37.92    165.00     22.61    9.0000 MillCreekTP          28602010            
  QCASCSO-4                 11.56    288.00     23.66    9.5000 MillCreekTP          28612024            
  QCAN-3                    30.92    180.00     32.74   10.0000 MidwaySchool         25114016            
  QCAS-10                   25.16   1461.00     16.10   10.0000 MillCreekTP          28609015            
  QCAS-11                   41.22    598.00     41.40   10.0000 MillCreekTP          25112004            
  WS-1                      13.09    190.00     41.93   10.0000 MillCreekTP          28606042            
  SA-5                      15.51    676.00     15.15   10.0000 MidwaySchool         25106022            
  WS-5                       4.90    355.00     50.97   10.0000 MillCreekTP          28607022            
  QCAS-12                   21.04    262.00     16.42   10.5000 MillCreekTP          25112021            
  QCASCSO-5                  8.08    282.00     12.03   10.5000 MillCreekTP          28612027            
  GA-2                      28.19   1638.00     34.07   10.5000 MillCreekTP          28604024            
  QCAN-2                    32.79    714.00     29.82   11.0000 MidwaySchool         25114016            
  QCASCSO-1                 37.90   1651.00      0.21   11.0000 MillCreekTP          29410010            
  SA-2                       6.62    115.00     14.89   11.0000 MidwaySchool         25111004            
  QCAS-3                    29.60    573.00     55.16   11.0000 MillCreekTP          29408013            
  QCAS-5                    11.61    506.00     53.62   12.0000 MillCreekTP          29408032            
  QR-1                      23.59    274.00     43.37   12.0000 MillCreekTP          28607014            
  QCAN-4                    23.70   1032.00     28.39   12.5000 MidwaySchool         25111001            
  QCAS-14                    9.34    232.00     16.80   13.0000 MidwaySchool         25112005B           
  WA-1                      17.50    508.00     14.23   13.0000 MillCreekTP          25112002            
  QCAS-9                    32.41    282.00     19.04   13.0000 MillCreekTP          28610001            
  GA-5                      15.68    152.00     40.26   13.5000 MillCreekTP          28605015            
  SA-1                       5.18    150.00     16.87   14.0000 MidwaySchool         25111011            
  QR-8                      34.87   1519.00     22.61   14.0000 MillCreekTP          28709018            
  WS-3                       5.03    159.00     29.93   14.0000 MillCreekTP          28611008            
  WS-2                       3.96     69.00     29.93   14.0000 MillCreekTP          28611012            
  WSCSO-1                    6.73    586.00     50.97   14.5000 MillCreekTP          28610051            
  QCAS-8                    10.72    467.00     43.37   14.5000 MillCreekTP          28606017            
  SA-16                     39.59    493.00     48.99    1.5000 MidwaySchool         24004025            
  WA-7                       1.06    370.00     68.40    1.5000 MillCreekTP          28608001            
  WA-6                       2.78    485.00     64.60    1.5000 MillCreekTP          25104031            
  SACSO-7                    4.08    356.00     40.80    1.5000 MidwaySchool         24105046            
  QCASCSO-3                 11.84    275.00     29.93   15.0000 MillCreekTP          28612019            
  SA-3                       9.69    241.00     11.99   15.0000 MidwaySchool         25111007            
  WA-3                       8.18    204.00     44.85   15.0000 MillCreekTP          25105002            
  GA-6                      16.43    179.00     18.55   15.0000 MillCreekTP          28606016            
  GA-3                      79.51    860.00      5.00   15.0000 MillCreekTP          28713011            
  QR-7                      19.35    562.00     22.30   15.5000 MillCreekTP          28716022            
  QCAN-1                     8.06    201.00     20.87   16.0000 MidwaySchool         25111002            
  QCANCSO-6                 13.00   1510.00     42.89    2.0000 MidwaySchool         24013017            
  FACSO-1                    6.60    384.00     25.49    2.0000 MidwaySchool         25114002            
  QCAN-6                    46.64    406.00     76.91    2.0000 MidwaySchool         25115013            
  SACSO-6                   31.25    181.00     12.94    2.0000 MidwaySchool         24006009            
  QCANCSO-5                 34.79   2020.00     30.48    2.5000 MidwaySchool         23912020            
  FACSO-2                   22.89   1329.00     38.15    2.5000 MidwaySchool         25207015            
  WSCSO-3                    5.33    310.00     36.09    2.5000 MillCreekTP          28609022            
  SA-10                     39.15   1137.00     24.42    2.5000 MidwaySchool         25102004            
  SACSO-5                   88.49   2570.00     42.52    2.5000 MidwaySchool         24004020            
  FA-6                      26.66   1161.00     30.14    3.0000 MidwaySchool         25210008            
  SACSO-1                   22.23   1291.00     35.01    3.0000 MidwaySchool         25103001            
  SA-14                     47.06   1025.00     30.26    3.0000 MidwaySchool         25101003            
  SA-11                     15.74    343.00     21.75    3.0000 MidwaySchool         25102005            
  SACSO-4                   26.54   1542.00     32.00    3.0000 MidwaySchool         24113010            
  QCAS-4                     4.01    233.00     40.04    3.0000 MillCreekTP          29408049            
  GA-8                      21.85    423.00     26.80    3.0000 MillCreekTP          28714008            
  SA-9                      42.92    935.00     25.70    3.0000 MidwaySchool         25009020            
  QCANCSO-3                 39.86    992.00     43.60    3.5000 MidwaySchool         25201006            
  QCANCSO-1                 13.01    283.00     41.97    3.5000 MidwaySchool         25208010            
  QCAN-10                   19.26    210.00     64.42    3.5000 MidwaySchool         24013022            
  QCAN-9                    11.22    163.00     71.78    3.5000 MidwaySchool         24013024            
  SA-15                     35.88    417.00     32.28    3.5000 MidwaySchool         24004025            
  WS-9                       4.50    196.00     36.09    3.5000 MillCreekTP          28615004            
  QCANCSO-7                 34.43   2000.00     64.00    4.0000 MidwaySchool         23903014            
  QCANCSO-2                 23.89   1387.00     57.27    4.0000 MidwaySchool         25116012            
  QCASCSO-6                 14.72    577.00     41.93    4.0000 MillCreekTP          28615034            
  GA-1                      13.28   1157.00     66.38    4.0000 MillCreekTP          28605018            
  WACSO-1                   16.13   1171.00     45.29    4.0000 MillCreekTP          25014026            
  WACSO-2                   20.81   1209.00     43.32    4.0000 MillCreekTP          25014012            
  QRCSO-2                   60.44   3993.00     40.16    4.0000 MillCreekTP          25012014B           
  QCASCSO-8                 20.94    608.00     22.68    4.5000 MidwaySchool         25113004            
  QCAN-5                    23.88    208.00     32.11    4.5000 MidwaySchool         25115013            
  QR-5                      69.83   1217.00     22.80    4.5000 MillCreekTP          28601003            
  QR-6                      21.19   1538.00     40.61    4.5000 MillCreekTP          25013018            
  SACSO-3                   46.21   3949.00     25.70    4.5000 MidwaySchool         25010005            
  QRCSO-3                  124.06  13074.00     36.95    4.5000 MillCreekTP          28708011            
  SACSO-2                   29.60   1719.00     27.07    4.5000 MidwaySchool         25102012            
  LMC002C0051a               8.98    525.00     20.47    8.4000 MillCreekTP          32915044            
  LMC003C0153b              13.01   1260.00     21.42    1.1250 MillCreekTP          29504021            
  LMC005C0453a               4.16    112.00     16.77    6.0600 MillCreekTP          29310012            
  LMC005Cnorthe             38.05    903.80      7.20    8.2000 MillCreekTP          29410016            
  LMC005C0238                6.71    692.00      7.15   11.2000 MidwaySchool         28407025            
  LMC003C0167b               4.14    150.00      1.00    0.5000 SpringGrove-CWW      32812001            
  LMC003C0167a              24.10    700.00      9.40    6.2000 SpringGrove-CWW      32812002            
  LMC003C0153a              15.16    825.00     42.20    3.1000 SpringGrove-CWW      29512015            
  LMC005C0145a               5.00    600.00     85.10    0.7500 MillCreekTP          29511018            
  EOMC001C0001               2.37     90.77     54.24    3.0800 MillCreekTP          32910023            
  EOMC001C0002               2.67    256.59     43.90    1.8700 MillCreekTP          32907012            
  EOMC001C0003               2.17    204.45     43.47    7.3200 MillCreekTP          32907010            
  EOMC001C0004               4.58    129.44     37.34    6.7500 MillCreekTP          32907009            
  EOMC001C0005               2.89    469.33     30.36    6.6300 MillCreekTP          32907007            
  EOMC001C0006              11.83    134.92     36.29    5.4500 MillCreekTP          32909025            
  EOMC001C0007               2.29    222.14     27.02    7.3400 MillCreekTP          32908017            
  EOMC001C0008               1.07     64.28     61.00    1.9200 MillCreekTP          32908007            
  EOMC001C0009               8.72    147.51     20.00   13.8900 MillCreekTP          32908049            
  EOMC001C0010               3.02    186.74     24.82    5.7000 MillCreekTP          32908005            
  EOMC001C0011               2.91    150.77     15.00   12.3000 MillCreekTP          32908002            
  EOMC001C0012               3.71    259.94     26.78   12.3000 MillCreekTP          29405043            
  EOMC001C0013               1.69    205.26     25.03   12.3000 MillCreekTP          29404061            
  EOMC001C0014               0.74     61.92     57.72   12.3000 MillCreekTP          32901009            
  EOMC001C0015               1.65    140.26     35.75   12.3000 MillCreekTP          29404060            
  EOMC001C0016               5.75    268.34     62.63   23.9000 MillCreekTP          32901024            
  EOMC001C0017              13.01    202.75     33.06    7.9900 MillCreekTP          32907005            
  EOMC001C0018               5.74    169.91     30.58    4.7200 MillCreekTP          32902069            
  EOMC001C0019               6.38    111.27     43.47    4.3800 MillCreekTP          32906012            
  EOMC001C0020               8.24    164.07     53.09    5.5600 MillCreekTP          32906002            
  EOMC001C0021               7.78    158.05     49.09    4.7000 MillCreekTP          32907047            
  EOMC001C0022               5.49    114.96     37.76    5.9900 MillCreekTP          32907039            
  EOMC001C0023               6.31    125.98     41.22    6.0700 MillCreekTP          32907028            
  EOMC001C0024               0.82     89.30     65.90    5.9400 MillCreekTP          32907027            
[...]
  29304050-29304049           0.67      0.67      0.68      0.66         0.61
  29304051-29304050           0.67      0.69      0.67      0.93         0.67
  29304052-29304051           0.67      0.67      0.69      0.01         0.01
  29305034-29305035           0.01      0.01      0.30      0.01         0.01
  29305035-29312006           0.30      0.30      0.41      0.01         0.01
  29305044-29305045           0.01      0.01      0.73      0.01         0.01
  29305045-29305046           0.73      0.73     95.58      0.01         0.01
  29305046-29305060           1.82      1.82     95.58      0.01         0.01
  29305047-29305004           0.01      0.01      0.01      0.38         0.01
  29305048-29305047           1.05      1.05      1.07      0.01         0.01
  29305049-29305048           2.73      2.73      2.79      0.01         0.01
  29305050-29305048           0.94      0.94      1.05      0.01         0.01
  29305051-29305049           2.24      2.24      2.73      0.01         0.01
  29305052-29305051           1.89      1.89      2.24      0.01         0.01
  29305053-29305050           0.75      0.75      0.94      0.01         0.01
  29305059-29312065           0.01      0.01      0.01      0.01         0.01
  29305062-29305057           0.01      0.01      0.70      0.01         0.01
  29311013-29311019           0.01      0.50      0.01      0.71         0.01
  29311022-29311021           0.01      0.01      0.01      0.79         0.01
  29311025-29311022           0.01      0.01      0.58      0.01         0.01
  29312003-29312065           0.79      0.79      0.84      0.01         0.01
  29312004-29312003           0.45      0.45      0.79      0.01         0.01
  29312005-29312004           0.57      0.57      0.66      0.01         0.01
  29312006-29312005           0.41      0.41      0.57      0.01         0.01
  29312065-29312067           0.01      0.01      0.19      0.01         0.01
  29312067-29305053           0.69      0.69      0.75      0.01         0.01
  29312069-29312067           0.83      0.83      0.93      0.01         0.01
  29312070-29305052           1.42      1.42      1.89      0.01         0.01
  29312071-29312069           0.70      0.70      0.83      0.01         0.01
  29312072-29312070           1.45      1.45      1.49      0.38         0.36
  29312073-29312071           0.01      0.01      0.70      0.01         0.01
  29312074-29312075           0.98      0.98      1.19      0.01         0.01
  29312075-29312072           1.44      1.45      1.45      0.39         0.35
  29312076-29312075           1.45      1.45      1.45      0.01         0.01
  29313034-29913062           0.01      0.92      0.01      2.40         0.01
  29313035-29313034           0.81      0.81      0.92      0.76         0.76
  29313036-29313035           0.72      0.72      0.81      0.01         0.01
  29313037-29313036           0.31      0.31      0.72      0.01         0.01
  29314013-29314015           0.01      0.01      0.01      0.48         0.01
  32901011-32901012           0.01      0.01      0.48      0.01         0.01
  32901012-32901063           0.48      0.48      0.52      0.01         0.01
  32901013-32901014           0.59      0.59      0.60      0.01         0.01
  32901014-32901015           0.59      0.59      0.61      0.01         0.01
  32901015-32901016           0.61      0.61      0.67      0.01         0.01
  32901016-32901042           0.64      0.64      0.66      0.01         0.01
  32901021-32901063           0.01      0.01      0.58      0.01         0.01
  32901042-33016062           0.01      0.76      0.01      0.01         0.01
  32901043-32901042           0.01      0.01      0.66      0.01         0.01
  32901063-32901013           0.52      0.52      0.59      0.01         0.01
  32902004-32902007           0.01      0.01      0.98      0.01         0.01
  32903048-32903047           0.01      1.00      0.01      0.97         0.01
  32906034-32903022           0.01      0.03      0.01      0.01         0.01
  32906035-32906034           0.01      0.01      0.03      0.01         0.01
  32906042-32906034           0.01      0.01      0.03      0.01         0.01
  32906056-32903048           0.97      0.97      1.00      0.45         0.44
  32906057-32906056           0.97      0.99      0.97      1.03         0.97
  32906058-32906057           0.44      0.44      0.99      0.01         0.01
  32906059-32906058           0.01      0.01      0.44      0.01         0.01
  32908005-32908004           0.01      0.07      0.01      0.18         0.01
  32908006-32908005           0.01      0.01      0.07      0.01         0.01
  32912003-32912004           0.01      0.96      0.01      0.73         0.01
  33001024-33008115B          0.01      0.01      0.67      0.01         0.01
  33001027-33008011           0.81      0.81      0.90      0.01         0.01
  33002040-33002085           0.01      0.01      1.39      0.01         0.01
  33002055-33007060B          0.01      0.01      1.22      0.01         0.01
  33002072-33002081           0.01      0.01      2.03      0.01         0.01
  33003035-33003036           0.01      0.01      0.01      0.92         0.01
  33003038-33003056           0.01      0.01      1.24      0.01         0.01
  33003050-33003083B          0.01      0.01      1.03      0.01         0.01
  33003058-33003056           0.01      0.01      0.37      0.01         0.01
  33003083B-33003081B         0.01      0.01      0.01      0.75         0.01
  33004008-33004009B          0.01      0.01      1.23      0.01         0.01
  33004045-33004043           0.01      0.01      0.01      0.01         0.01
  33005008-33005007           0.01      0.01      0.01      0.12         0.01
  33005009-33005008           0.01      0.01      0.01      0.18         0.01
  33005019-33005009           0.01      0.01      1.23      0.01         0.01
  33005028-33005096           0.01      0.01      0.59      0.01         0.01
  33007002-33008104           0.01      0.01      0.01      0.01         0.01
  33007045-33007065           0.01      0.01      0.04      0.01         0.01
  33007046-33007034           0.01      0.01      0.96      0.01         0.01
  33007065-33007025           0.03      0.04      0.78      0.01         0.03
  33008011-33008096           0.90      0.90      1.48      0.01         0.01
  33008052-33008063           0.95      1.04      0.95      1.10         0.95
  33008054-33008005           0.69      0.75      0.69      0.99         0.66
  33008055-33008054           0.77      0.77      0.88      0.29         0.27
  33008056-33008055           0.76      0.77      0.77      0.84         0.72
  33008057-33008056           0.68      0.68      0.77      0.45         0.43
  33008058-33008057           0.65      0.65      0.68      0.01         0.01
  33008059-33008058           0.48      0.48      0.65      0.01         0.01
  33008060-33008059           0.31      0.31      0.48      0.01         0.01
  33008061-33008060           0.26      0.26      0.40      0.13         0.13
  33008062-33008061           0.01      0.01      0.26      0.01         0.01
  33008063-33008062           0.01      0.86      0.01      0.01         0.01
  33008096-33008115B          0.01      0.01      0.01      0.20         0.01
  33008097-33008096           0.01      0.01      0.92      0.01         0.01
  33008098-33008097           0.01      0.01      0.01      0.01         0.01
  33008101-33008121           0.01      0.01      0.02      0.01         0.01
  33008104-33008098           0.01      0.01      1.03      0.01         0.01
  33008105-33008112B          0.01      0.01      1.05      0.01         0.01
  33010032-33010097B          0.01      0.01      1.03      0.01         0.01
  33010058-33010045           0.01      0.01      0.92      0.01         0.01
  33010096B-33010045          0.01      0.01      0.01      0.93         0.01
  33011007-33011008           0.01      0.01      0.01      0.92         0.01
  33011071-33012050           0.01      0.01      0.63      0.01         0.01
  33012039-33012038           0.01      1.07      0.01      0.71         0.01
  33013025-33012039           0.75      0.75      1.07      0.01         0.01
  33013026-33013025           0.59      0.59      0.75      0.01         0.01
  33013027-33013026           0.41      0.41      0.59      0.01         0.01
  33013028-33013027           0.34      0.34      0.41      0.01         0.01
  33013039-33013028           0.01      0.01      0.34      0.01         0.01
  33016007-33016005           0.01      0.56      0.01      0.30         0.01
  33016008-33016007           0.20      0.20     94.13      0.01         0.01
  33016009-33016008           0.01      0.01      0.01      0.03         0.01
  33016010-33016009           0.01      0.01      0.01      0.20         0.01
  33016011-33016010           0.63      0.63      2.25      0.01         0.01
  33102024-33107029           0.11      0.11      0.93      0.01         0.01
  33102026-33102024           0.09      0.56      0.09      0.90         0.09
  33102028-33102035           0.85      0.87      0.85      0.92         0.85
  33102035-33102026           0.56      0.69      0.56      0.92         0.56
  33106001-33106002           0.01      0.01      0.52      0.01         0.01
  33106002-33106080           0.01      0.01      0.64      0.01         0.01
  33106010-33106011           0.01      0.01      0.25      0.01         0.01
  33106011-33106012           0.01      0.25      0.01      0.68         0.01
  33106031-33106079           0.38      0.38      0.72      0.01         0.01
  33106039-33106038           0.01      0.46      0.01      0.63         0.01
  33106048-33106039           0.01      0.01      0.46      0.01         0.01
  33106078-33107049           0.07      0.76      0.07      0.81         0.07
  33106079-33106078           0.72      0.72      0.76      0.02         0.01
  33106080-33107013           0.01      0.01      0.64      0.01         0.01
  33107013-33107045           0.01      0.01      0.91      0.01         0.01
  33107029-33107030           0.37      0.93      0.37      0.98         0.37
  33107030-33108011           0.01      0.37      0.01      0.01         0.01
  33107045-33107046           1.00      1.12      1.00      1.19         1.00
  33107046-33107047           0.91      1.00      0.91      1.17         0.91
  33107047-33107048           0.55      0.91      0.55      1.13         0.55
  33107048-33110081           0.54      0.55      0.61      0.88         0.54
  33107049-33110082           0.01      0.07      0.01      0.87         0.01
  33108027-33109010           0.01      0.01      1.03      0.01         0.01
  33109011-33109012           0.45      0.45      0.59      0.01         0.01
  33109012-33109010           0.57      0.57      1.12      0.28         0.28
  33109024-33109022           0.85      0.87      0.85      1.66         0.85
  33109039-33109023           0.01      0.01      0.01      2.42         0.01
  33110064-33110019           0.01      0.01      0.01      1.29         0.01
  33110081-33110083           0.62      0.62      0.62      0.53         0.30
  33110082-33110081           0.01      0.01      0.62      0.01         0.01
  33110083-33110084           0.61      0.62      0.61      0.75         0.61
  33111057-33114041           0.01      0.01      0.38      0.01         0.01
  33113001-33113002           0.01      0.01      1.13      0.01         0.01
  33113011-33113012           0.01      0.01      0.01      1.48         0.01
  33114017-33114016           0.01      0.70      0.01      0.83         0.01
  33114018-33114017           0.67      0.67      0.70      0.74         0.67
  33114041-33114055           0.32      0.32      0.99      0.01         0.01
  33114055-33114056           0.99      0.99     91.25      0.01         0.01
  33114056-33114079           1.03      1.03     91.25      0.01         0.01
  33115016-33115061           0.01      0.01      0.01      0.22         0.01
  33116002-33116064           0.01      0.01      0.61      0.01         0.01
  33116003-29213008           0.01      0.54      0.01      0.86         0.01
  33116004-33116064           0.01      0.01      0.61      0.01         0.01
  33116008-33116007           0.01      0.01      0.01      1.59         0.01
  33116024-33116065           0.01      0.01      0.85      0.01         0.01
  33116049-33116072           0.01      0.01      0.62      0.01         0.01
  33116050-33116049           0.01      0.01      0.99      0.01         0.01
  33116064-33116003           0.54      0.61      0.54      0.86         0.54
  33116069-33116008           0.01      0.01      0.01      1.18         0.01
  33116072-33116069           0.01      0.62      0.01      1.30         0.01
  33116077-33109024           0.01      0.01      0.99      0.01         0.01
  33114016-33114015           0.01      0.01      0.01      0.54         0.01
  29208018-29207015           0.01      1.31      0.01      1.47         0.01
  29208024-29208018           1.24      1.24      1.31      0.77         0.76
  29209030-29209029           0.01      0.92      0.01      0.92         0.01
  29209031-29209030           0.92      0.99      0.92      1.04         0.92
  29209032-29209033           0.99      1.01      0.99      1.04         0.99
  29209033-29209050           0.97      0.97      0.98      0.94         0.94
  29209034-29209033           0.91      0.91      0.94      0.01         0.01
  29209050-29209031           0.98      0.98      0.99      0.96         0.95
  29209051-29209050           1.03      1.03      1.06      0.01         0.01
  29209052-29209051           1.02      1.02      1.03      0.01         0.01
  29209054-29209031           1.00      1.00      1.01      0.01         0.01
  29209055-29209054           0.94      0.94      1.00      0.01         0.01
  29209056-29209055           0.89      0.89      0.94      0.01         0.01
  29216005-29209032           1.01      1.03      1.01      1.06         1.01
  29216026-29209033           0.98      0.98      0.98      0.01         0.08
  29216027-29216026           0.97      0.97      0.98      0.93         0.80
  29214019-29214019A          0.01      0.30      0.01      1.90         0.01
  ORIFICE78@29407038-29407038A       19.47     19.47     89.01     12.22         0.01
  CSO428DivChamber2-CSO428JunChamber1        0.01      0.01      0.01      0.23         0.01
  CSO666DivChamber1-DropShaft2JunChamber1        0.53      0.53      0.55      0.77         0.03
  CSO3-5ConsSewer-DropShaft2JunChamber1        0.01      1.03      0.01      1.11         0.01
  DropShaft1-DropShaft1AirVent        2.34      2.34      2.35      0.01         0.01
  DropShaft1AirVent-DropShaft1ConnectingAdit        2.35      2.35      2.36      0.01         0.01
  DropShaft1ConnectingAdit-DropShaft1Tunnel        3.76      3.77      3.79      0.01         0.07
  DropShaft2-DropShaft2AirVent        2.00      2.00      2.01      0.01         0.03
  DropShaft2AirVent-DropShaft2ConnectingAdit        2.01      2.01      2.02      0.01         0.03
  DropShaft2ConnectingAdit-DropShaft2Tunnel        2.94      2.94      2.95      0.85         0.17
  DropShaft2Tunnel-DropShaft1TunnelC        2.95      2.95      3.13      0.01         0.03
  DropShaft1TunnelC-DropShaft1TunnelB        3.13      3.13      3.34      0.01         0.03
  DropShaft1TunnelB-DropShaft1TunnelA        3.33      3.34      3.54      0.01         0.03
  DropShaft1TunnelA-DropShaft1Tunnel        3.54      3.54      3.79      0.01         0.03
  CSO3DivChamber2-CSO3-5ConsolidationSewerGateDummy2        0.92      0.99      0.92      1.00         0.92
  DropShaft3-AirVentDropShaft3        1.82      1.82      1.82      0.01         0.01
  AirVentDropShaft3-ConnectingAditDropShaft3        1.82      1.82      1.83      0.01         0.06
  ConnectingAditDropShaft3-DropShaft3Tunnel        2.32      2.32      2.32      0.01         0.10
  DropShaft3ATunnel-DropShaft3TunnelE        2.34      2.34      2.42      0.01         0.02
  10                          2.42      2.42      2.52      0.01         0.02
  DropShaft3TunnelD-DropShaft3TunnelC        2.52      2.52      2.65      0.01         0.02
  DropShaft3TunnelC-DropShaft3TunnelB        2.65      2.65      2.79      0.01         0.02
  DropShaft3TunnelB-DropShaft2Tunnel        2.79      2.79      2.95      0.01         0.02
  DropShaft3Tunnel-DropShaft3ATunnel        2.32      2.32      2.34      0.01         0.02
  TunnelRetrievalShaft-TunnelRetrievalShaftA        2.22      2.22      2.27      0.01         0.01
  TunnelRetrievalShaftA-DropShaft3Tunnel        2.27      2.27      2.32      0.01         0.01
  CSO9-7ConsolidationSewerB-CSO7DivChamber1        0.94      0.96      0.94      1.03         0.94
  CSO9DivChamber1-CSO9-7ConsolidationSewerA        0.97      0.99      0.98      1.02         0.97
  CSO9-7ConsolidationSewerA-CSO9-7ConsolidationSewerB        0.96      0.98      0.96      1.03         0.96
  CSO7DivChamber1-CSO6DivChamber1        0.58      0.86      0.58      0.94         0.58
  CSO6DivChamber1-DropShaft3AJunChamber1        0.01      0.01      0.01      0.89         0.01
  DropShaft3A-AirVentDropShaft3A        1.71      1.71      1.71      0.01         0.01
  AirVentDropShaft3A-ConnectingAditDropShaft3A        1.71      1.71      1.72      0.01         0.01
  ConnectingAditDropShaft3A-DropShaft3A1        1.97      1.97      1.98      0.01         0.02
  DropShaft3A1-DropShaft3A2l        2.84      3.01      2.91      0.97         0.74
  DropShaft3A2-DropShaft3ATunnel        2.24      2.91      2.34      0.94         0.07
  CSO4-DropShaft3AJunChamber-DropShaft3AJunChamber1        0.01      1.06      0.01      1.17         0.01
  CSO4DivChamber1-CSO4-DropShaft3AJunChamber        1.06      1.11      1.06      1.17         1.06
  CSO152DivChamber2-CSO3-5ConsSewer        1.03      1.09      1.03      1.13         1.03
  CSO3-5ConsolidationSewerGateDummy2-CSO3-5ConsolidationSewerGateDummy1        0.01      0.92      0.01      0.96         0.01
  DropShaft1Tunnel-ScreenShaft       63.93     63.93     66.03      0.01         0.19
  DropShaft3A-DummyDropShaft3A        1.05      1.06      1.05      0.02         0.51
  DropShaft3-DummyDropShaft3        1.19      1.19      1.19      0.01         0.59
  DropShaft2-DummyDropShaft2        1.20      1.21      1.20      0.01         0.59
  DropShaft1-DummyDropShaft1        1.20      1.20      1.20      0.01         0.59
  ScreenShaft-PumpStation       89.04     89.05     89.05     15.82        39.91
  
  
  ***************
  Pumping Summary
  ***************
  
  ---------------------------------------------------------------------------------------------------------
                                                  Min       Avg       Max     Total     Power    % Time Off
                        Percent   Number of      Flow      Flow      Flow    Volume     Usage    Pump Curve
  Pump                 Utilized   Start-Ups       CFS       CFS       CFS  10^6 gal     Kw-hr    Low   High
  ---------------------------------------------------------------------------------------------------------
  PUMPSecondary@MCPump-WWTP_DIS    97.87           3      0.00    181.55    247.56   453.285  36311.52    0.0   21.9
  PUMPPrimary@MCPump-WWTP_DIS    20.82          77      0.00    163.78    309.44    78.869   6416.54    0.0   36.8
  Pump@WWTP_HRT            8.88           5      0.00    124.84    129.95    28.917  18850.82    0.0    0.0
  Pump@WWTP-Jockey        12.01          13      0.00      6.19      6.19     1.921   1439.48    0.0    0.0
  Pump@HRT                 7.98           3      0.00    128.12    129.95    26.432  14131.61    0.0    0.0
  

  Analysis begun on:  Wed Jun 24 12:11:02 2026
  Analysis ended on:  Wed Jun 24 14:47:10 2026
  Total elapsed time: 02:36:08