
  EPA STORM WATER MANAGEMENT MODEL - VERSION 5.2 (Build 5.2.4)
  ------------------------------------------------------------

  
  ERROR 209: undefined object GIS2002225 at line 84823 of [REPORT] section:
  NODES MUNJ-364 GIS2002225 GIS6007412 GIS6009590

  
  ERROR 209: undefined object GIS2002226 at line 84824 of [REPORT] section:
  NODES GIS2002286 MUNJ-362 GIS2002226 GIS6007449

  
  ERROR 209: undefined object MUNJ-350 at line 84825 of [REPORT] section:
  NODES GIS6009587 GIS2002147 MUNJ-361 MUNJ-350


  Analysis begun on:  Wed Jun 24 14:47:16 2026
  Analysis ended on:  Wed Jun 24 14:47:16 2026
  Total elapsed time: < 1 sec