
  EPA STORM WATER MANAGEMENT MODEL - VERSION 5.2 (Build 5.2.4)
  ------------------------------------------------------------

  WARNING 04: minimum elevation drop used for Conduit 018-0574A.1
  WARNING 04: minimum elevation drop used for Conduit 018-0574C.1
  WARNING 04: minimum elevation drop used for Conduit 034-0049.1
  WARNING 04: minimum elevation drop used for Conduit 034-0390.1
  WARNING 04: minimum elevation drop used for Conduit 034-0392.1
  WARNING 04: minimum elevation drop used for Conduit 040-0511A.1
  WARNING 04: minimum elevation drop used for Conduit 040-0511B.1
  WARNING 04: minimum elevation drop used for Conduit 044-0534A.1
  WARNING 04: minimum elevation drop used for Conduit 044-0534B.1
  WARNING 04: minimum elevation drop used for Conduit 049-0157A.1
  WARNING 04: minimum elevation drop used for Conduit 049-0157B.1
  WARNING 04: minimum elevation drop used for Conduit 049-0157C.1
  WARNING 08: elevation drop exceeds length for Conduit 049-0212.3
  WARNING 04: minimum elevation drop used for Conduit 049-0212A.1
  WARNING 04: minimum elevation drop used for Conduit 049-0212B.1
  WARNING 04: minimum elevation drop used for Conduit 049-0212C.1
  WARNING 08: elevation drop exceeds length for Conduit 049-0212E.1
  WARNING 04: minimum elevation drop used for Conduit 049-0220A.1
  WARNING 04: minimum elevation drop used for Conduit 049-0220C.1
  WARNING 08: elevation drop exceeds length for Conduit 049-0730.1
  WARNING 08: elevation drop exceeds length for Conduit 049-0730.2
  WARNING 04: minimum elevation drop used for Conduit 049-0730A.1
  WARNING 04: minimum elevation drop used for Conduit 049-0730B.1
  WARNING 08: elevation drop exceeds length for Conduit 049-0730C.1
  WARNING 08: elevation drop exceeds length for Conduit 049-0730D.1
  WARNING 08: elevation drop exceeds length for Conduit 049-0731.1
  WARNING 04: minimum elevation drop used for Conduit 049-0731A.1
  WARNING 04: minimum elevation drop used for Conduit 049-0731B.1
  WARNING 04: minimum elevation drop used for Conduit 066-0127.1
  WARNING 04: minimum elevation drop used for Conduit 069-0119.2
  WARNING 02: maximum depth increased for Node 034-FM15A
  WARNING 02: maximum depth increased for Node 064-0575
  WARNING 02: maximum depth increased for Node Dummy_SSWWTP
  
  ****************
  Analysis Options
  ****************
  Flow Units ............... MGD
  Process Models:
    Rainfall/Runoff ........ NO
    RDII ................... NO
    Snowmelt ............... NO
    Groundwater ............ NO
    Flow Routing ........... YES
    Ponding Allowed ........ YES
    Water Quality .......... NO
  Flow Routing Method ...... DYNWAVE
  Surcharge Method ......... EXTRAN
  Starting Date ............ 05/20/2015 00:00:00
  Ending Date .............. 05/24/2015 23:55:00
  Antecedent Dry Days ...... 0.0
  Report Time Step ......... 00:05:00
  Routing Time Step ........ 10.00 sec
  Variable Time Step ....... YES
  Maximum Trials ........... 8
  Number of Threads ........ 1
  Head Tolerance ........... 0.005000 ft
  
  
  ERROR 351: cannot open routing interface file F:\2017\My2016\InflowsInterface.txt.

  Analysis begun on:  Wed Jun 24 14:47:16 2026
  Analysis ended on:  Wed Jun 24 14:47:16 2026
  Total elapsed time: < 1 sec