
  EPA STORM WATER MANAGEMENT MODEL - VERSION 5.2 (Build 5.2.4)
  ------------------------------------------------------------

  WARNING 04: minimum elevation drop used for Conduit BKR004R46016
  WARNING 04: minimum elevation drop used for Conduit BKR008R46013
  WARNING 04: minimum elevation drop used for Conduit D51001D51002
  WARNING 04: minimum elevation drop used for Conduit DD59001DD59002
  WARNING 04: minimum elevation drop used for Conduit E03017aE03018a
  WARNING 04: minimum elevation drop used for Conduit E03017bE03018b
  WARNING 04: minimum elevation drop used for Conduit H02078H02078a
  WARNING 04: minimum elevation drop used for Conduit H02078H02078b
  WARNING 04: minimum elevation drop used for Conduit I18051I18052
  WARNING 08: elevation drop exceeds length for Conduit J15003aJ15003
  WARNING 08: elevation drop exceeds length for Conduit J15003bJ15003
  WARNING 08: elevation drop exceeds length for Conduit J15003cJ15003
  WARNING 04: minimum elevation drop used for Conduit J15004dJ15003a
  WARNING 04: minimum elevation drop used for Conduit J15004eJ15003b
  WARNING 04: minimum elevation drop used for Conduit J15004fJ15003c
  WARNING 04: minimum elevation drop used for Conduit J15005aJ15004d
  WARNING 04: minimum elevation drop used for Conduit J15005bJ15004e
  WARNING 04: minimum elevation drop used for Conduit J15005cJ15004f
  WARNING 08: elevation drop exceeds length for Conduit J15005J15005a
  WARNING 08: elevation drop exceeds length for Conduit J15005J15005b
  WARNING 08: elevation drop exceeds length for Conduit J15005J15005c
  WARNING 08: elevation drop exceeds length for Conduit J34001J34001b
  WARNING 04: minimum elevation drop used for Conduit K11010aK11011a
  WARNING 04: minimum elevation drop used for Conduit K11010bK11011b
  WARNING 04: minimum elevation drop used for Conduit K22013K22017
  WARNING 04: minimum elevation drop used for Conduit K22017K22018
  WARNING 04: minimum elevation drop used for Conduit L18129aL18068a
  WARNING 04: minimum elevation drop used for Conduit L18129bL18068b
  WARNING 04: minimum elevation drop used for Conduit L18129cL18068c
  WARNING 08: elevation drop exceeds length for Conduit L23009bL23009
  WARNING 04: minimum elevation drop used for Conduit L23010aL23009a
  WARNING 04: minimum elevation drop used for Conduit L23010bL23009a
  WARNING 04: minimum elevation drop used for Conduit L23010cL23009a
  WARNING 04: minimum elevation drop used for Conduit L23012L23011
  WARNING 08: elevation drop exceeds length for Conduit L27006bL27006
  WARNING 04: minimum elevation drop used for Conduit L27007aL27006a
  WARNING 04: minimum elevation drop used for Conduit L27007bL27006b
  WARNING 04: minimum elevation drop used for Conduit L27007cL27006c
  WARNING 04: minimum elevation drop used for Conduit LK07055
  WARNING 04: minimum elevation drop used for Conduit LL02143
  WARNING 04: minimum elevation drop used for Conduit LL02178
  WARNING 04: minimum elevation drop used for Conduit LO10312.I
  WARNING 04: minimum elevation drop used for Conduit LR18036
  WARNING 04: minimum elevation drop used for Conduit M18231M18232a
  WARNING 04: minimum elevation drop used for Conduit M31003aM35002a
  WARNING 04: minimum elevation drop used for Conduit M31003bM35002b
  WARNING 04: minimum elevation drop used for Conduit M31003cM35002c
  WARNING 08: elevation drop exceeds length for Conduit M31003M31003b
  WARNING 08: elevation drop exceeds length for Conduit M35002bM35002
  WARNING 04: minimum elevation drop used for Conduit N18183aN18182a
  WARNING 04: minimum elevation drop used for Conduit N18183bN18182b
  WARNING 04: minimum elevation drop used for Conduit N18183cN18182c
  WARNING 04: minimum elevation drop used for Conduit N22146aN22147a
  WARNING 04: minimum elevation drop used for Conduit N22146bN22147b
  WARNING 04: minimum elevation drop used for Conduit N22146cN22147c
  WARNING 04: minimum elevation drop used for Conduit N23121AN23120A
  WARNING 04: minimum elevation drop used for Conduit N23125AN23124A
  WARNING 04: minimum elevation drop used for Conduit N23125BN23124B
  WARNING 04: minimum elevation drop used for Conduit N23212BN23120B
  WARNING 04: minimum elevation drop used for Conduit O22058aO22059a
  WARNING 04: minimum elevation drop used for Conduit O22058bO22059b
  WARNING 04: minimum elevation drop used for Conduit O22058cO22059c
  WARNING 04: minimum elevation drop used for Conduit P10035P10034
  WARNING 04: minimum elevation drop used for Conduit P30004aP30005a
  WARNING 04: minimum elevation drop used for Conduit P30004bP30005b
  WARNING 04: minimum elevation drop used for Conduit P30004cP30005c
  WARNING 04: minimum elevation drop used for Conduit Pond1Pond2
  WARNING 04: minimum elevation drop used for Conduit Q06057Q06058
  WARNING 04: minimum elevation drop used for Conduit R06002R06001
  WARNING 04: minimum elevation drop used for Conduit R46023aR46024a
  WARNING 04: minimum elevation drop used for Conduit R46023bR46024b
  WARNING 04: minimum elevation drop used for Conduit R46023cR46024c
  WARNING 08: elevation drop exceeds length for Conduit R46023R46023b
  WARNING 04: minimum elevation drop used for Conduit S06002S06002a
  WARNING 04: minimum elevation drop used for Conduit S06002S06002b
  WARNING 04: minimum elevation drop used for Conduit S06002S06002c
  WARNING 08: elevation drop exceeds length for Conduit S46002aS46002_8
  WARNING 04: minimum elevation drop used for Conduit V07009V07008
  WARNING 04: minimum elevation drop used for Conduit X18001aX18037a
  WARNING 04: minimum elevation drop used for Conduit X18001bX18037b
  WARNING 04: minimum elevation drop used for Conduit X18193aX18192a
  WARNING 04: minimum elevation drop used for Conduit X18193bX18192b
  WARNING 10: crest elevation is below downstream invert for regulator Link BrownSt_PassiveGate
  WARNING 10: crest elevation is below downstream invert for regulator Link zzz
  WARNING 02: maximum depth increased for Node E03017b
  WARNING 02: maximum depth increased for Node E03018b
  WARNING 02: maximum depth increased for Node Q07022
  WARNING 02: maximum depth increased for Node S18082
  WARNING 02: maximum depth increased for Node S46002
  WARNING 02: maximum depth increased for Node T58003
  WARNING 02: maximum depth increased for Node UER012
  
  ****************
  Analysis Options
  ****************
  Flow Units ............... MGD
  Process Models:
    Rainfall/Runoff ........ YES
    RDII ................... YES
    Snowmelt ............... NO
    Groundwater ............ NO
    Flow Routing ........... NO
    Water Quality .......... NO
  Infiltration Method ...... HORTON
  Flow Routing Method ...... KINWAVE
  Starting Date ............ 04/07/2010 00:00:00
  Ending Date .............. 04/08/2010 00:00:00
  Antecedent Dry Days ...... 0.0
  Report Time Step ......... 00:05:00
  Wet Time Step ............ 00:05:00
  Dry Time Step ............ 00:05:00
  Routing Time Step ........ 30.00 sec
  
  
  **********************           Volume        Volume
  Rainfall Dependent I/I        acre-feet      10^6 gal
  **********************        ---------     ---------
  Sewershed Rainfall ......      4553.731      1483.901
  RDII Produced ...........        59.870        19.509
  RDII Ratio ..............         0.013
  
  
  **************************        Volume         Depth
  Runoff Quantity Continuity     acre-feet        inches
  **************************     ---------       -------
  Total Precipitation ......       878.887         1.041
  Evaporation Loss .........         0.000         0.000
  Infiltration Loss ........       628.620         0.745
  Surface Runoff ...........       202.039         0.239
  Final Storage ............        48.774         0.058
  Continuity Error (%) .....        -0.062
  
  
  ********************************
  Highest Flow Instability Indexes
  ********************************
  All links are stable.
  
  
  ***************************
  Subcatchment Runoff Summary
  ***************************
  
  ------------------------------------------------------------------------------------------------------------------------------
                            Total      Total      Total      Total     Imperv       Perv      Total       Total     Peak  Runoff
                           Precip      Runon       Evap      Infil     Runoff     Runoff     Runoff      Runoff   Runoff   Coeff
  Subcatchment                 in         in         in         in         in         in         in    10^6 gal      MGD
  ------------------------------------------------------------------------------------------------------------------------------
  I11010#1                   1.04       0.00       0.00       0.83       0.19       0.00       0.19        0.15     1.80   0.187
  I11017#1                   1.04       0.00       0.00       0.83       0.20       0.00       0.20        0.08     1.02   0.188
  I11060#1                   1.04       0.00       0.00       0.83       0.19       0.00       0.19        0.18     1.82   0.183
  I11120#1                   1.04       0.00       0.00       0.83       0.19       0.00       0.19        0.15     1.67   0.185
  J02075#1                   1.04       0.00       0.00       0.94       0.10       0.00       0.10        0.17     2.15   0.094
  J02108#1                   1.04       0.00       0.00       0.73       0.30       0.00       0.30        0.17     1.83   0.291
  J03016#1                   1.04       0.00       0.00       0.83       0.11       0.00       0.11        0.44     2.11   0.103
  J03022#1                   1.04       0.00       0.00       0.83       0.17       0.00       0.17        0.13     0.80   0.162
  J03033#1                   1.04       0.00       0.00       0.83       0.20       0.00       0.20        0.05     0.42   0.188
  J03040#1                   1.04       0.00       0.00       0.83       0.18       0.00       0.18        0.11     0.76   0.177
  J03051#1                   1.04       0.00       0.00       0.83       0.20       0.00       0.20        0.03     0.33   0.192
  J03070#1                   1.04       0.00       0.00       0.83       0.20       0.00       0.20        0.03     0.34   0.192
  J03079#1                   1.04       0.00       0.00       0.83       0.20       0.00       0.20        0.05     0.42   0.188
  J03087#1                   1.04       0.00       0.00       0.83       0.18       0.00       0.18        0.11     0.78   0.176
  J03098#1                   1.04       0.00       0.00       0.73       0.31       0.00       0.31        0.05     0.62   0.298
  J03112#1                   1.04       0.00       0.00       0.73       0.31       0.00       0.31        0.05     0.68   0.297
  J03119#1                   1.04       0.00       0.00       0.83       0.20       0.00       0.20        0.03     0.29   0.190
  J03136#1                   1.04       0.00       0.00       0.83       0.18       0.00       0.18        0.08     0.55   0.177
  J03152#1                   1.04       0.00       0.00       0.83       0.19       0.00       0.19        0.05     0.37   0.185
  J03226#1                   1.04       0.00       0.00       0.73       0.31       0.00       0.31        0.05     0.67   0.297
  J03265#1                   1.04       0.00       0.00       0.40       0.20       0.02       0.22        0.08     0.70   0.212
  J06103#1                   1.04       0.00       0.00       0.88       0.15       0.00       0.15        0.11     1.29   0.139
  J06113#1                   1.04       0.00       0.00       0.85       0.17       0.00       0.17        0.30     3.18   0.166
  J06154#1                   1.04       0.00       0.00       0.92       0.12       0.00       0.12        0.05     0.65   0.113
  J06170#1                   1.04       0.00       0.00       0.92       0.12       0.00       0.12        0.07     0.94   0.113
  J06177#1                   1.04       0.00       0.00       0.75       0.28       0.00       0.28        0.04     0.53   0.265
  J06214#1                   1.04       0.00       0.00       0.92       0.12       0.00       0.12        0.08     1.00   0.112
  J07093#1                   1.04       0.00       0.00       0.83       0.19       0.00       0.19        0.10     1.11   0.185
  J10103#1                   1.04       0.00       0.00       0.88       0.15       0.00       0.15        0.17     2.17   0.142
  J10165#1                   1.04       0.00       0.00       0.83       0.20       0.00       0.20        0.14     1.86   0.190
  J11108#1                   1.04       0.00       0.00       0.83       0.19       0.00       0.19        0.11     1.25   0.186
  J11125#1                   1.04       0.00       0.00       0.83       0.19       0.00       0.19        0.17     1.87   0.185
  J11151#1                   1.04       0.00       0.00       0.83       0.19       0.00       0.19        0.12     1.29   0.184
  J11156#1                   1.04       0.00       0.00       0.83       0.19       0.00       0.19        0.04     0.47   0.186
  J11185#1                   1.04       0.00       0.00       0.83       0.19       0.00       0.19        0.08     0.88   0.185
  J14244#1                   1.04       0.00       0.00       0.83       0.20       0.00       0.20        0.05     0.77   0.190
  J14315#1                   1.04       0.00       0.00       0.83       0.20       0.00       0.20        0.10     1.33   0.189
  K02150#1                   1.04       0.00       0.00       0.72       0.19       0.05       0.24        0.53     4.37   0.235
  K02199#1                   1.04       0.00       0.00       0.72       0.19       0.06       0.25        0.25     2.07   0.240
  K03101#1                   1.04       0.00       0.00       0.72       0.19       0.06       0.25        0.42     3.55   0.242
  K03105#1                   1.04       0.00       0.00       0.97       0.07       0.00       0.07        0.00     0.05   0.067
  K03106#1                   1.04       0.00       0.00       0.97       0.07       0.00       0.07        0.00     0.07   0.067
  K03110#1                   1.04       0.00       0.00       0.97       0.07       0.00       0.07        0.02     0.27   0.067
  K03119#1                   1.04       0.00       0.00       0.97       0.07       0.00       0.07        0.01     0.14   0.067
  K03120#1                   1.04       0.00       0.00       0.97       0.07       0.00       0.07        0.01     0.08   0.067
  K03140#1                   1.04       0.00       0.00       0.72       0.19       0.08       0.27        0.14     1.18   0.259
  K03249#1                   1.04       0.00       0.00       0.72       0.19       0.08       0.27        0.15     1.26   0.261
  K03293#1                   1.04       0.00       0.00       0.71       0.20       0.13       0.32        0.04     0.31   0.310
  K06006#1                   1.04       0.00       0.00       0.72       0.19       0.08       0.27        0.08     0.73   0.262
  K06085#1                   1.04       0.00       0.00       0.75       0.28       0.00       0.28        0.16     2.05   0.265
  K06126#1                   1.04       0.00       0.00       0.83       0.20       0.00       0.20        0.13     1.67   0.190
  K06175#1                   1.04       0.00       0.00       0.92       0.12       0.00       0.12        0.04     0.47   0.113
  K06211#1                   1.04       0.00       0.00       0.92       0.12       0.00       0.12        0.05     0.67   0.113
  K06228#1                   1.04       0.00       0.00       0.92       0.12       0.00       0.12        0.02     0.29   0.114
  K06275#1                   1.04       0.00       0.00       0.83       0.19       0.00       0.19        0.20     1.90   0.183
  K07010#1                   1.04       0.00       0.00       0.96       0.08       0.00       0.08        0.01     0.12   0.076
  K07021#1                   1.04       0.00       0.00       0.71       0.20       0.12       0.32        0.07     0.54   0.307
  K07029#1                   1.04       0.00       0.00       0.77       0.08       0.18       0.26        0.03     0.30   0.254
  K07032#1                   1.04       0.00       0.00       0.79       0.08       0.17       0.25        0.06     0.60   0.239
  K07040#1                   1.04       0.00       0.00       0.83       0.08       0.12       0.20        0.05     0.34   0.190
  K07043#1                   1.04       0.00       0.00       0.78       0.08       0.17       0.25        0.03     0.33   0.243
  K07055#1                   1.04       0.00       0.00       0.72       0.15       0.16       0.31        0.03     0.26   0.300
  K07057#1                   1.04       0.00       0.00       0.74       0.15       0.14       0.29        0.04     0.34   0.282
  K07078#1                   1.04       0.00       0.00       0.72       0.19       0.07       0.27        0.03     0.22   0.257
  K07089#1                   1.04       0.00       0.00       0.75       0.15       0.14       0.29        0.07     0.62   0.276
  K07110#1                   1.04       0.00       0.00       0.96       0.08       0.00       0.08        0.01     0.15   0.077
  K07113#1                   1.04       0.00       0.00       0.90       0.14       0.00       0.14        0.08     1.10   0.133
  K07142#1                   1.04       0.00       0.00       0.70       0.15       0.18       0.33        0.01     0.18   0.320
  K07151#1                   1.04       0.00       0.00       0.76       0.15       0.12       0.26        0.06     0.45   0.253
  K07163#1                   1.04       0.00       0.00       0.74       0.15       0.14       0.29        0.05     0.47   0.281
  K07267#1                   1.04       0.00       0.00       0.72       0.20       0.09       0.29        0.12     1.06   0.275
  K10006#1                   1.04       0.00       0.00       0.75       0.28       0.00       0.28        0.03     0.49   0.267
  K10009#1                   1.04       0.00       0.00       0.94       0.10       0.00       0.10        0.05     0.54   0.093
  K10012#1                   1.04       0.00       0.00       0.90       0.14       0.00       0.14        0.03     0.45   0.134
  K10013#1                   1.04       0.00       0.00       0.78       0.25       0.00       0.25        0.20     2.57   0.236
  K10047#1                   1.04       0.00       0.00       0.94       0.10       0.00       0.10        0.10     1.02   0.094
  K10167#1                   1.04       0.00       0.00       0.88       0.14       0.00       0.14        0.18     1.38   0.133
  K10270#1                   1.04       0.00       0.00       0.91       0.12       0.00       0.12        0.21     1.53   0.113
  K10364#1                   1.04       0.00       0.00       0.75       0.28       0.00       0.28        0.11     1.36   0.265
  K10389#1                   1.04       0.00       0.00       0.75       0.28       0.00       0.28        0.01     0.11   0.267
  K11058#1                   1.04       0.00       0.00       0.80       0.10       0.14       0.24        0.13     1.06   0.228
  K11059#1                   1.04       0.00       0.00       0.81       0.10       0.11       0.21        0.07     0.49   0.204
  K11075#1                   1.04       0.00       0.00       0.81       0.10       0.12       0.22        0.04     0.28   0.210
  K11098#1                   1.04       0.00       0.00       0.81       0.10       0.12       0.22        0.12     0.91   0.211
  K11116#1                   1.04       0.00       0.00       0.71       0.20       0.12       0.32        0.12     0.96   0.308
  K11135#1                   1.04       0.00       0.00       0.96       0.08       0.00       0.08        0.02     0.36   0.076
  K11137#1                   1.04       0.00       0.00       0.96       0.08       0.00       0.08        0.02     0.27   0.076
  K11172#1                   1.04       0.00       0.00       0.72       0.20       0.11       0.31        0.08     0.70   0.297
  K14038#1                   1.04       0.00       0.00       0.85       0.17       0.00       0.17        0.85     8.20   0.165
  K14139#1                   1.04       0.00       0.00       0.91       0.13       0.00       0.13        0.44     5.64   0.122
  K15044#1                   1.04       0.00       0.00       0.68       0.20       0.15       0.35        0.03     0.31   0.338
  K15051#1                   1.04       0.00       0.00       0.72       0.19       0.08       0.27        0.07     0.62   0.261
  K15065#1                   1.04       0.00       0.00       0.72       0.20       0.09       0.29        0.05     0.40   0.278
  K15078#1                   1.04       0.00       0.00       0.69       0.20       0.14       0.34        0.07     0.63   0.326
  L02001#1                   1.04       0.00       0.00       0.68       0.37       0.00       0.37        0.05     0.83   0.351
  L02112#1                   1.04       0.00       0.00       0.78       0.24       0.00       0.24        0.09     1.08   0.232
  L02143#1                   1.04       0.00       0.00       0.72       0.19       0.06       0.25        0.27     2.21   0.238
  L02178#1                   1.04       0.00       0.00       0.72       0.19       0.07       0.26        0.06     0.50   0.254
  L02212#1                   1.04       0.00       0.00       0.88       0.15       0.00       0.15        0.01     0.10   0.143
  L02220#1                   1.04       0.00       0.00       0.68       0.36       0.00       0.36        0.03     0.42   0.345
  L02250#1                   1.04       0.00       0.00       0.68       0.35       0.00       0.35        0.08     0.91   0.340
  L02264#1                   1.04       0.00       0.00       0.68       0.37       0.00       0.37        0.04     0.59   0.351
  L02415#1                   1.04       0.00       0.00       0.72       0.19       0.07       0.27        0.16     1.41   0.257
  L03018#1                   1.04       0.00       0.00       0.72       0.20       0.09       0.28        0.10     0.89   0.273
  L03045#1                   1.04       0.00       0.00       0.72       0.20       0.10       0.29        0.07     0.56   0.281
  L03073#1                   1.04       0.00       0.00       0.72       0.20       0.09       0.28        0.12     1.08   0.271
  L03152#1                   1.04       0.00       0.00       0.72       0.19       0.07       0.26        0.10     0.85   0.253
  L03159#1                   1.04       0.00       0.00       0.78       0.24       0.00       0.24        0.04     0.47   0.233
  L03180#1                   1.04       0.00       0.00       0.66       0.20       0.18       0.37        0.03     0.37   0.360
  L03207#1                   1.04       0.00       0.00       0.78       0.24       0.00       0.24        0.12     1.40   0.233
  L03229#1                   1.04       0.00       0.00       0.72       0.19       0.08       0.27        0.12     1.08   0.262
  L03269#1                   1.04       0.00       0.00       0.67       0.20       0.16       0.36        0.05     0.51   0.348
  L03271#1                   1.04       0.00       0.00       0.72       0.19       0.07       0.26        0.09     0.78   0.250
  L03290#1                   1.04       0.00       0.00       0.72       0.19       0.07       0.27        0.12     1.01   0.259
  L06002#1                   1.04       0.00       0.00       0.42       0.63       0.00       0.63        0.01     0.18   0.602
  L06018#1                   1.04       0.00       0.00       0.42       0.62       0.00       0.62        0.10     1.24   0.596
  L06022#1                   1.04       0.00       0.00       0.68       0.36       0.00       0.36        0.05     0.55   0.344
  L06036#1                   1.04       0.00       0.00       0.68       0.36       0.00       0.36        0.06     0.74   0.343
  L06041#1                   1.04       0.00       0.00       0.68       0.36       0.00       0.36        0.07     0.83   0.341
  L06112#1                   1.04       0.00       0.00       0.83       0.20       0.00       0.20        0.08     1.09   0.190
  L06172#1                   1.04       0.00       0.00       0.88       0.15       0.00       0.15        0.03     0.37   0.142
  L06203#1                   1.04       0.00       0.00       0.83       0.20       0.00       0.20        0.06     0.93   0.191
  L06222#1                   1.04       0.00       0.00       0.42       0.59       0.00       0.59        0.10     0.84   0.568
  L06253#1                   1.04       0.00       0.00       0.42       0.60       0.00       0.60        0.06     0.66   0.579
  L06277#1                   1.04       0.00       0.00       0.42       0.59       0.00       0.59        0.13     1.16   0.570
  L06366#1                   1.04       0.00       0.00       0.42       0.62       0.00       0.62        0.11     1.49   0.596
  L06438.1#1                 1.04       0.00       0.00       0.22       0.74       0.04       0.79        0.28     2.47   0.757
  L06447#1                   1.04       0.00       0.00       0.92       0.12       0.00       0.12        0.05     0.64   0.113
  L06448#1                   1.04       0.00       0.00       0.68       0.35       0.00       0.35        0.09     0.96   0.340
  L07003#1                   1.04       0.00       0.00       0.70       0.20       0.14       0.33        0.15     1.27   0.322
  L07007#1                   1.04       0.00       0.00       0.76       0.15       0.13       0.28        0.11     0.86   0.266
  L07008#1                   1.04       0.00       0.00       0.76       0.15       0.13       0.28        0.03     0.20   0.265
  L07012#1                   1.04       0.00       0.00       0.75       0.15       0.14       0.28        0.06     0.48   0.273
  L07075#1                   1.04       0.00       0.00       0.70       0.20       0.13       0.33        0.05     0.44   0.319
  L07077#1                   1.04       0.00       0.00       0.72       0.20       0.09       0.29        0.10     0.86   0.275
  L07116#1                   1.04       0.00       0.00       0.72       0.19       0.07       0.26        0.14     1.20   0.249
  L07122#1                   1.04       0.00       0.00       0.69       0.20       0.14       0.34        0.04     0.33   0.325
  L07136#1                   1.04       0.00       0.00       0.72       0.20       0.10       0.29        0.05     0.46   0.280
  L07142#1                   1.04       0.00       0.00       0.72       0.19       0.08       0.27        0.10     0.84   0.259
  L07166#1                   1.04       0.00       0.00       0.75       0.15       0.13       0.28        0.08     0.62   0.268
  L07169#1                   1.04       0.00       0.00       0.75       0.15       0.13       0.28        0.02     0.20   0.268
  L07176#1                   1.04       0.00       0.00       0.74       0.15       0.15       0.29        0.06     0.50   0.283
  L07195#1                   1.04       0.00       0.00       0.75       0.15       0.14       0.29        0.04     0.31   0.276
  L07201#1                   1.04       0.00       0.00       0.72       0.19       0.08       0.28        0.03     0.27   0.266
  L07206#1                   1.04       0.00       0.00       0.72       0.20       0.10       0.29        0.02     0.21   0.279
  L07212#1                   1.04       0.00       0.00       0.72       0.20       0.10       0.29        0.04     0.34   0.283
  L07245#1                   1.04       0.00       0.00       0.72       0.20       0.10       0.29        0.06     0.52   0.281
  L07248#1                   1.04       0.00       0.00       0.72       0.20       0.11       0.31        0.07     0.58   0.295
  L10028#1                   1.04       0.00       0.00       0.73       0.29       0.00       0.29        0.27     3.34   0.281
  L10154#1                   1.04       0.00       0.00       0.78       0.23       0.00       0.23        0.37     2.92   0.221
  L10323#1                   1.04       0.00       0.00       0.81       0.18       0.00       0.18        0.31     1.97   0.175
  L11005#1                   1.04       0.00       0.00       0.71       0.20       0.12       0.32        0.15     1.24   0.309
  L11008#1                   1.04       0.00       0.00       0.69       0.20       0.14       0.34        0.07     0.61   0.325
  L11013#1                   1.04       0.00       0.00       0.69       0.20       0.14       0.34        0.08     0.67   0.325
  L11014#1                   1.04       0.00       0.00       0.72       0.20       0.10       0.30        0.13     1.07   0.284
  L11071#1                   1.04       0.00       0.00       0.72       0.20       0.09       0.29        0.24     2.04   0.278
  L11083#1                   1.04       0.00       0.00       0.71       0.20       0.13       0.32        0.03     0.27   0.311
  L11101#1                   1.04       0.00       0.00       0.72       0.20       0.10       0.30        0.05     0.41   0.289
  L11150#1                   1.04       0.00       0.00       0.69       0.20       0.14       0.34        0.12     1.09   0.324
  L11159#1                   1.04       0.00       0.00       0.68       0.20       0.15       0.35        0.11     1.02   0.335
  L11211#1                   1.04       0.00       0.00       0.69       0.20       0.14       0.34        0.11     0.95   0.323
  L11221#1                   1.04       0.00       0.00       0.71       0.20       0.12       0.32        0.12     1.01   0.305
  L11223#1                   1.04       0.00       0.00       0.72       0.20       0.11       0.30        0.06     0.47   0.292
  L11240#1                   1.04       0.00       0.00       0.70       0.20       0.14       0.34        0.09     0.77   0.322
  L14144#1                   1.04       0.00       0.00       0.77       0.25       0.00       0.25        0.33     4.05   0.244
  L14251#1                   1.04       0.00       0.00       0.76       0.26       0.00       0.26        0.37     4.74   0.254
  L14344#1                   1.04       0.00       0.00       0.78       0.24       0.00       0.24        0.21     2.63   0.235
  L15012#1                   1.04       0.00       0.00       0.72       0.20       0.10       0.30        0.12     1.05   0.286
  L15026#1                   1.04       0.00       0.00       0.89       0.00       0.02       0.02        0.00     0.02   0.020
  L15065#1                   1.04       0.00       0.00       0.70       0.20       0.14       0.33        0.08     0.67   0.321
  L15087#1                   1.04       0.00       0.00       0.71       0.20       0.12       0.32        0.11     0.88   0.308
  L15095#1                   1.04       0.00       0.00       0.72       0.20       0.11       0.30        0.14     1.20   0.292
  L15172#1                   1.04       0.00       0.00       0.81       0.10       0.10       0.20        0.13     0.90   0.192
  L15191#1                   1.04       0.00       0.00       0.81       0.10       0.10       0.20        0.07     0.52   0.192
  L15201#1                   1.04       0.00       0.00       0.89       0.00       0.01       0.02        0.01     0.03   0.015
  L15214#1                   1.04       0.00       0.00       0.71       0.20       0.13       0.32        0.11     0.89   0.311
  L15251#1                   1.04       0.00       0.00       0.89       0.00       0.03       0.04        0.01     0.04   0.034
  L15301#1                   1.04       0.00       0.00       0.81       0.10       0.08       0.17        0.17     1.23   0.166
  L15302#1                   1.04       0.00       0.00       0.72       0.20       0.12       0.31        0.13     1.05   0.302
  L19020#1                   1.04       0.00       0.00       0.94       0.10       0.00       0.10        0.03     0.42   0.094
  L19028#1                   1.04       0.00       0.00       0.94       0.10       0.00       0.10        0.04     0.46   0.094
  L19072#1                   1.04       0.00       0.00       0.88       0.14       0.00       0.14        0.18     1.78   0.137
  L19171#1                   1.04       0.00       0.00       0.88       0.15       0.00       0.15        0.03     0.33   0.142
  L19184#1                   1.04       0.00       0.00       0.88       0.15       0.00       0.15        0.04     0.55   0.141
  L19190#1                   1.04       0.00       0.00       0.88       0.15       0.00       0.15        0.01     0.13   0.142
  L19200#1                   1.04       0.00       0.00       0.88       0.15       0.00       0.15        0.03     0.35   0.142
  L19219#1                   1.04       0.00       0.00       0.88       0.15       0.00       0.15        0.05     0.61   0.141
  L19226#1                   1.04       0.00       0.00       0.88       0.15       0.00       0.15        0.06     0.70   0.140
  L19254#1                   1.04       0.00       0.00       0.96       0.08       0.00       0.08        0.05     0.69   0.075
  M02011#1                   1.04       0.00       0.00       0.78       0.25       0.00       0.25        0.04     0.56   0.238
  M02211#1                   1.04       0.00       0.00       0.74       0.19       0.09       0.28        0.09     0.97   0.269
  M02217#1                   1.04       0.00       0.00       0.74       0.19       0.09       0.28        0.08     0.78   0.265
  M02243#1                   1.04       0.00       0.00       0.74       0.19       0.10       0.28        0.03     0.34   0.274
  M02250#1                   1.04       0.00       0.00       0.74       0.19       0.10       0.29        0.04     0.42   0.274
  M02319#1                   1.04       0.00       0.00       0.74       0.19       0.10       0.29        0.04     0.44   0.277
  M02360#1                   1.04       0.00       0.00       0.74       0.19       0.10       0.28        0.05     0.46   0.273
  M02365#1                   1.04       0.00       0.00       0.74       0.19       0.09       0.28        0.05     0.48   0.267
  M02381#1                   1.04       0.00       0.00       0.74       0.19       0.11       0.30        0.02     0.20   0.284
  M02417#1                   1.04       0.00       0.00       0.66       0.39       0.00       0.39        0.03     0.48   0.371
  M02484#1                   1.04       0.00       0.00       0.42       0.61       0.00       0.61        0.09     1.05   0.590
  M02491#1                   1.04       0.00       0.00       0.78       0.25       0.00       0.25        0.00     0.05   0.239
  M02503#1                   1.04       0.00       0.00       0.78       0.25       0.00       0.25        0.02     0.32   0.238
  M02560#1                   1.04       0.00       0.00       0.78       0.25       0.00       0.25        0.16     2.10   0.236
  M03163#1                   1.04       0.00       0.00       0.74       0.19       0.08       0.27        0.11     1.17   0.259
  M03173#1                   1.04       0.00       0.00       0.74       0.19       0.10       0.29        0.08     0.76   0.275
  M03236#1                   1.04       0.00       0.00       0.72       0.20       0.09       0.28        0.10     0.83   0.270
  M03241#1                   1.04       0.00       0.00       0.72       0.19       0.07       0.26        0.10     0.84   0.254
  M03254#1                   1.04       0.00       0.00       0.72       0.19       0.08       0.28        0.13     1.14   0.267
  M03321#1                   1.04       0.00       0.00       0.78       0.24       0.00       0.24        0.11     1.33   0.235
  M06061#1                   1.04       0.00       0.00       0.59       0.45       0.00       0.45        0.06     0.91   0.435
  M06092#1                   1.04       0.00       0.00       0.59       0.45       0.00       0.45        0.20     2.73   0.433
  M06124#1                   1.04       0.00       0.00       0.59       0.44       0.00       0.44        0.21     2.46   0.427
  M06152#1                   1.04       0.00       0.00       0.59       0.44       0.00       0.44        0.13     1.56   0.427
  M06196#1                   1.04       0.00       0.00       0.59       0.45       0.00       0.45        0.15     1.79   0.429
  M06230#1                   1.04       0.00       0.00       0.59       0.45       0.00       0.45        0.11     1.41   0.430
  M06261#1                   1.04       0.00       0.00       0.51       0.44       0.00       0.44        0.12     1.47   0.424
  M06276#1                   1.04       0.00       0.00       0.51       0.44       0.00       0.44        0.06     0.76   0.424
  M06309#1                   1.04       0.00       0.00       0.51       0.44       0.00       0.44        0.08     1.00   0.425
  M06354#1                   1.04       0.00       0.00       0.51       0.44       0.00       0.44        0.11     1.35   0.425
  M06394#1                   1.04       0.00       0.00       0.66       0.39       0.00       0.39        0.09     1.31   0.372
  M06430#1                   1.04       0.00       0.00       0.66       0.39       0.00       0.39        0.06     0.82   0.370
  M06485#1                   1.04       0.00       0.00       0.66       0.38       0.00       0.38        0.09     1.21   0.368
  M06535#1                   1.04       0.00       0.00       0.66       0.39       0.00       0.39        0.03     0.43   0.371
  M06601#1                   1.04       0.00       0.00       0.42       0.62       0.00       0.62        0.27     3.74   0.597
  M06617#1                   1.04       0.00       0.00       0.42       0.62       0.00       0.62        0.16     1.93   0.595
  M06673#1                   1.04       0.00       0.00       0.42       0.62       0.00       0.62        0.31     3.73   0.591
  M06691#1                   1.04       0.00       0.00       0.66       0.38       0.00       0.38        0.09     1.20   0.368
  M06698#1                   1.04       0.00       0.00       0.88       0.15       0.00       0.15        0.05     0.71   0.143
  M07001#1                   1.04       0.00       0.00       0.72       0.20       0.09       0.29        0.29     2.48   0.274
  M07019#1                   1.04       0.00       0.00       0.72       0.20       0.11       0.31        0.25     2.06   0.295
  M07233#1                   1.04       0.00       0.00       0.72       0.19       0.07       0.27        0.03     0.29   0.255
  M07244#1                   1.04       0.00       0.00       0.72       0.20       0.10       0.30        0.02     0.16   0.286
  M07258#1                   1.04       0.00       0.00       0.72       0.20       0.10       0.30        0.02     0.21   0.284
  M07262#1                   1.04       0.00       0.00       0.72       0.19       0.08       0.28        0.08     0.70   0.268
  M07271#1                   1.04       0.00       0.00       0.72       0.19       0.08       0.27        0.13     1.16   0.262
  M07289#1                   1.04       0.00       0.00       0.72       0.20       0.11       0.31        0.07     0.54   0.297
  M07328#1                   1.04       0.00       0.00       0.72       0.19       0.06       0.26        0.17     1.48   0.247
  M10120M#1                  1.04       0.00       0.00       0.94       0.10       0.00       0.10        0.11     1.40   0.096
  M10193#1                   1.04       0.00       0.00       0.73       0.26       0.00       0.26        0.28     2.03   0.254
  M10234#1                   1.04       0.00       0.00       0.99       0.04       0.00       0.04        0.24     1.59   0.040
  M10300#1                   1.04       0.00       0.00       0.72       0.20       0.10       0.29        0.05     0.43   0.281
  M10309#1                   1.04       0.00       0.00       0.72       0.19       0.06       0.25        0.16     1.37   0.245
  M11035#1                   1.04       0.00       0.00       0.71       0.20       0.12       0.32        0.17     1.40   0.309
  M11076#1                   1.04       0.00       0.00       0.71       0.20       0.12       0.32        0.23     1.84   0.303
  M11097#1                   1.04       0.00       0.00       0.72       0.20       0.10       0.30        0.11     0.90   0.284
  M11138#1                   1.04       0.00       0.00       0.72       0.20       0.09       0.28        0.55     4.76   0.270
  M11167#1                   1.04       0.00       0.00       0.72       0.20       0.11       0.31        0.13     1.11   0.294
  M11199#1                   1.04       0.00       0.00       0.69       0.20       0.14       0.34        0.14     1.25   0.323
  M11241#1                   1.04       0.00       0.00       0.72       0.20       0.12       0.31        0.16     1.32   0.300
  M11283#1                   1.04       0.00       0.00       0.71       0.20       0.12       0.32        0.21     1.71   0.307
  M14027#1                   1.04       0.00       0.00       0.76       0.26       0.00       0.26        0.27     3.44   0.254
  M15001#1                   1.04       0.00       0.00       0.67       0.20       0.17       0.37        0.02     0.25   0.351
  M15002#1                   1.04       0.00       0.00       0.67       0.20       0.17       0.36        0.02     0.25   0.350
  M15003#1                   1.04       0.00       0.00       0.72       0.20       0.10       0.30        0.09     0.77   0.287
  M15063#1                   1.04       0.00       0.00       0.68       0.20       0.15       0.35        0.04     0.37   0.334
  M15067#1                   1.04       0.00       0.00       0.72       0.20       0.09       0.29        0.12     1.01   0.277
  M15083#1                   1.04       0.00       0.00       0.67       0.20       0.16       0.36        0.03     0.27   0.344
  M15115#1                   1.04       0.00       0.00       0.69       0.20       0.14       0.34        0.06     0.49   0.325
  M15141#1                   1.04       0.00       0.00       0.68       0.20       0.16       0.36        0.02     0.22   0.341
  M15165#1                   1.04       0.00       0.00       0.70       0.20       0.13       0.33        0.04     0.38   0.316
  M15179#1                   1.04       0.00       0.00       0.70       0.20       0.13       0.33        0.09     0.80   0.314
  M15241#1                   1.04       0.00       0.00       0.71       0.20       0.12       0.32        0.17     1.42   0.303
  M15255#1                   1.04       0.00       0.00       0.69       0.20       0.14       0.34        0.03     0.31   0.324
  M15265#1                   1.04       0.00       0.00       0.68       0.20       0.15       0.35        0.04     0.43   0.339
  M15268#1                   1.04       0.00       0.00       0.67       0.20       0.16       0.36        0.02     0.25   0.347
  M15288#1                   1.04       0.00       0.00       0.70       0.20       0.14       0.33        0.08     0.72   0.320
  M15349#1                   1.04       0.00       0.00       0.70       0.20       0.14       0.33        0.07     0.62   0.322
  M15350#1                   1.04       0.00       0.00       0.72       0.20       0.11       0.30        0.11     0.88   0.293
  M18001#1                   1.04       0.00       0.00       0.81       0.10       0.08       0.18        0.59     4.18   0.173
  M18015-OLD#1               1.04       0.00       0.00       0.72       0.20       0.09       0.29        0.06     0.49   0.279
  M19004#1                   1.04       0.00       0.00       0.88       0.15       0.00       0.15        0.11     1.31   0.140
  M19016#1                   1.04       0.00       0.00       0.88       0.15       0.00       0.15        0.06     0.75   0.141
  M19023#1                   1.04       0.00       0.00       0.88       0.15       0.00       0.15        0.06     0.74   0.141
  M19154#1                   1.04       0.00       0.00       0.88       0.15       0.00       0.15        0.07     0.89   0.140
  N02068#1                   1.04       0.00       0.00       0.81       0.10       0.06       0.16        0.06     0.44   0.153
  N02071#1                   1.04       0.00       0.00       0.81       0.10       0.04       0.14        0.22     1.75   0.133
  N02128#1                   1.04       0.00       0.00       0.81       0.10       0.07       0.17        0.09     0.64   0.159
  N02141#1                   1.04       0.00       0.00       0.77       0.10       0.17       0.27        0.03     0.34   0.258
  N02147#1                   1.04       0.00       0.00       0.72       0.19       0.06       0.25        0.15     1.26   0.245
  N02206#1                   1.04       0.00       0.00       0.81       0.10       0.08       0.18        0.21     1.46   0.176
  N03021#1                   1.04       0.00       0.00       0.81       0.10       0.06       0.16        0.16     1.23   0.150
  N03061#1                   1.04       0.00       0.00       0.77       0.10       0.17       0.27        0.05     0.54   0.257
  N03073#1                   1.04       0.00       0.00       0.78       0.10       0.15       0.25        0.08     0.73   0.244
  N03095#1                   1.04       0.00       0.00       0.78       0.10       0.15       0.25        0.07     0.63   0.243
  N03160#1                   1.04       0.00       0.00       0.71       0.20       0.12       0.32        0.17     1.38   0.303
  N03199#1                   1.04       0.00       0.00       0.72       0.19       0.08       0.28        0.35     3.08   0.268
  N03305#1                   1.04       0.00       0.00       0.72       0.20       0.11       0.31        0.17     1.38   0.298
  N06162#1                   1.04       0.00       0.00       0.72       0.19       0.06       0.25        0.25     2.10   0.238
  N06272#1                   1.04       0.00       0.00       0.72       0.19       0.06       0.25        0.18     1.53   0.244
  N06292#1                   1.04       0.00       0.00       0.72       0.19       0.07       0.27        0.15     1.26   0.258
  N06315#1                   1.04       0.00       0.00       0.72       0.19       0.07       0.26        0.24     2.09   0.250
  N07063#1                   1.04       0.00       0.00       0.71       0.20       0.12       0.32        0.10     0.84   0.308
  N07087#1                   1.04       0.00       0.00       0.72       0.20       0.10       0.30        0.10     0.82   0.289
  N07113#1                   1.04       0.00       0.00       0.72       0.20       0.11       0.31        0.22     1.82   0.295
  N07144#1                   1.04       0.00       0.00       0.71       0.20       0.13       0.32        0.06     0.53   0.312
  N07166#1                   1.04       0.00       0.00       0.69       0.20       0.14       0.34        0.08     0.71   0.323
  N07199#1                   1.04       0.00       0.00       0.72       0.20       0.11       0.30        0.16     1.31   0.292
  N07210#1                   1.04       0.00       0.00       0.72       0.20       0.11       0.31        0.15     1.29   0.293
  N10133#1                   1.04       0.00       0.00       0.83       0.19       0.00       0.19        0.10     0.99   0.183
  N10160#1                   1.04       0.00       0.00       0.83       0.19       0.00       0.19        0.07     0.71   0.184
  N11009#1                   1.04       0.00       0.00       0.71       0.20       0.12       0.32        0.07     0.56   0.309
  N11035#1                   1.04       0.00       0.00       0.72       0.20       0.12       0.31        0.10     0.85   0.300
  N11060#1                   1.04       0.00       0.00       0.72       0.20       0.11       0.31        0.18     1.51   0.293
  N11077#1                   1.04       0.00       0.00       0.72       0.20       0.10       0.29        0.13     1.09   0.282
  N11119#1                   1.04       0.00       0.00       0.70       0.20       0.13       0.33        0.17     1.43   0.319
  N11132#1                   1.04       0.00       0.00       0.67       0.20       0.16       0.36        0.04     0.43   0.346
  N11138#1                   1.04       0.00       0.00       0.68       0.20       0.15       0.35        0.02     0.18   0.335
  N11168#1                   1.04       0.00       0.00       0.72       0.19       0.08       0.27        0.26     2.26   0.263
  N11178#1                   1.04       0.00       0.00       0.70       0.20       0.14       0.34        0.12     1.03   0.322
  N11205#1                   1.04       0.00       0.00       0.71       0.20       0.12       0.32        0.15     1.26   0.309
  N11238#1                   1.04       0.00       0.00       0.72       0.20       0.11       0.31        0.19     1.53   0.299
  N11244#1                   1.04       0.00       0.00       0.69       0.20       0.15       0.35        0.11     1.06   0.332
  N11248#1                   1.04       0.00       0.00       0.67       0.20       0.16       0.36        0.06     0.59   0.345
  N14106#1                   1.04       0.00       0.00       0.72       0.19       0.08       0.27        0.10     0.88   0.260
  N14145#1                   1.04       0.00       0.00       0.72       0.19       0.06       0.25        0.12     1.00   0.244
  N14169#1                   1.04       0.00       0.00       0.72       0.19       0.08       0.28        0.13     1.12   0.268
  N14250#1                   1.04       0.00       0.00       0.72       0.18       0.02       0.20        0.13     0.93   0.187
  N14275#1                   1.04       0.00       0.00       0.72       0.20       0.10       0.29        0.06     0.54   0.281
  N14287#1                   1.04       0.00       0.00       0.72       0.19       0.08       0.27        0.09     0.79   0.260
  N14304#1                   1.04       0.00       0.00       0.72       0.19       0.05       0.24        0.24     1.98   0.235
  N15017#1                   1.04       0.00       0.00       0.72       0.19       0.08       0.28        0.14     1.23   0.268
  N15053#1                   1.04       0.00       0.00       0.72       0.20       0.11       0.31        0.25     2.08   0.294
  N15063#1                   1.04       0.00       0.00       0.72       0.20       0.10       0.30        0.11     0.91   0.284
  N15078#1                   1.04       0.00       0.00       0.72       0.20       0.11       0.31        0.13     1.05   0.297
  N15103#1                   1.04       0.00       0.00       0.72       0.20       0.11       0.31        0.21     1.69   0.299
  N15112#1                   1.04       0.00       0.00       0.71       0.20       0.13       0.32        0.10     0.81   0.311
  N15121#1                   1.04       0.00       0.00       0.72       0.20       0.12       0.31        0.08     0.64   0.301
  N15139#1                   1.04       0.00       0.00       0.71       0.20       0.13       0.32        0.15     1.21   0.311
  N15178#1                   1.04       0.00       0.00       0.70       0.20       0.13       0.33        0.16     1.38   0.317
  N15183#1                   1.04       0.00       0.00       0.68       0.20       0.15       0.35        0.11     1.00   0.334
  N15212#1                   1.04       0.00       0.00       0.71       0.20       0.12       0.32        0.16     1.28   0.307
  N15223#1                   1.04       0.00       0.00       0.72       0.20       0.11       0.31        0.11     0.93   0.294
  N18004#1                   1.04       0.00       0.00       0.72       0.19       0.05       0.25        0.08     0.65   0.237
  N18025#1                   1.04       0.00       0.00       0.72       0.19       0.07       0.27        0.10     0.86   0.258
  N18026#1                   1.04       0.00       0.00       0.70       0.20       0.13       0.33        0.02     0.19   0.317
  N18040#1                   1.04       0.00       0.00       0.72       0.20       0.11       0.30        0.07     0.63   0.290
  N18047#1                   1.04       0.00       0.00       0.70       0.20       0.13       0.33        0.04     0.32   0.315
  N18053#1                   1.04       0.00       0.00       0.72       0.20       0.12       0.31        0.02     0.13   0.301
  N18055#1                   1.04       0.00       0.00       0.72       0.20       0.11       0.30        0.04     0.30   0.292
  N18061#1                   1.04       0.00       0.00       0.72       0.20       0.12       0.31        0.04     0.30   0.301
  N18066#1                   1.04       0.00       0.00       0.71       0.20       0.12       0.32        0.04     0.33   0.308
  N18103#1                   1.04       0.00       0.00       0.72       0.19       0.07       0.26        0.15     1.27   0.249
  N18151#1                   1.04       0.00       0.00       0.72       0.19       0.06       0.26        0.16     1.33   0.246
  N22005#1                   1.04       0.00       0.00       0.72       0.19       0.07       0.26        0.04     0.36   0.253
  N22006#1                   1.04       0.00       0.00       0.72       0.19       0.06       0.26        0.05     0.40   0.246
  N22077#1                   1.04       0.00       0.00       0.72       0.19       0.06       0.25        0.05     0.45   0.239
  N22083#1                   1.04       0.00       0.00       0.72       0.19       0.07       0.26        0.07     0.56   0.248
  N22092.3#1                 1.04       0.00       0.00       0.92       0.12       0.00       0.12        0.06     0.75   0.114
  N22100#1                   1.04       0.00       0.00       0.92       0.12       0.00       0.12        0.06     0.77   0.114
  O02001#1                   1.04       0.00       0.00       0.72       0.19       0.03       0.21        0.33     2.45   0.205
  O02052#1                   1.04       0.00       0.00       0.72       0.19       0.03       0.22        0.34     2.56   0.211
  O02105#1                   1.04       0.00       0.00       0.52       0.48       0.00       0.48        0.09     0.98   0.464
  O02106#1                   1.04       0.00       0.00       0.52       0.47       0.00       0.47        0.09     0.74   0.451
  O02120#1                   1.04       0.00       0.00       0.52       0.47       0.00       0.47        0.07     0.59   0.454
  O02126#1                   1.04       0.00       0.00       0.73       0.29       0.00       0.29        0.03     0.36   0.283
  O02131#1                   1.04       0.00       0.00       0.52       0.49       0.00       0.49        0.03     0.32   0.467
  O02139#1                   1.04       0.00       0.00       0.52       0.44       0.00       0.44        0.18     1.37   0.427
  O02161#1                   1.04       0.00       0.00       0.52       0.45       0.00       0.45        0.15     1.12   0.435
  O02173#1                   1.04       0.00       0.00       0.52       0.48       0.00       0.48        0.06     0.68   0.463
  O03008#1                   1.04       0.00       0.00       0.72       0.18       0.03       0.21        0.14     1.04   0.203
  O03040#1                   1.04       0.00       0.00       0.72       0.19       0.03       0.22        0.38     2.78   0.213
  O03115#1                   1.04       0.00       0.00       0.72       0.19       0.03       0.22        0.25     1.83   0.212
  O03139#1                   1.04       0.00       0.00       0.72       0.19       0.04       0.23        0.17     1.23   0.220
  O03177#1                   1.04       0.00       0.00       0.72       0.19       0.03       0.22        0.28     2.07   0.210
  O03261#1                   1.04       0.00       0.00       0.71       0.20       0.12       0.32        0.12     0.97   0.307
  O03268#1                   1.04       0.00       0.00       0.81       0.10       0.12       0.22        0.05     0.39   0.209
  O06005#1                   1.04       0.00       0.00       0.52       0.49       0.00       0.49        0.09     1.05   0.467
  O06202#1                   1.04       0.00       0.00       0.52       0.49       0.00       0.49        0.05     0.57   0.470
  O06207#1                   1.04       0.00       0.00       0.52       0.48       0.00       0.48        0.19     1.80   0.457
  O06255#1                   1.04       0.00       0.00       0.52       0.48       0.00       0.48        0.24     2.48   0.459
  O06265#1                   1.04       0.00       0.00       0.52       0.47       0.00       0.47        0.13     1.07   0.452
  O06283#1                   1.04       0.00       0.00       0.52       0.47       0.00       0.47        0.08     0.66   0.449
  O06296#1                   1.04       0.00       0.00       0.52       0.47       0.00       0.47        0.06     0.51   0.452
  O07001#1                   1.04       0.00       0.00       0.72       0.20       0.11       0.31        0.14     1.15   0.296
  O07051#1                   1.04       0.00       0.00       0.72       0.20       0.11       0.30        0.37     3.15   0.290
  O07076#1                   1.04       0.00       0.00       0.72       0.20       0.11       0.30        0.10     0.81   0.290
  O07083#1                   1.04       0.00       0.00       0.72       0.20       0.11       0.31        0.13     1.09   0.293
  O07189#1                   1.04       0.00       0.00       0.70       0.20       0.13       0.33        0.11     0.98   0.317
  O07237#1                   1.04       0.00       0.00       0.72       0.20       0.11       0.30        0.22     1.81   0.292
  O07253#1                   1.04       0.00       0.00       0.71       0.20       0.12       0.32        0.09     0.70   0.308
  O07286#1                   1.04       0.00       0.00       0.72       0.20       0.11       0.31        0.24     2.01   0.296
  O10001#1                   1.04       0.00       0.00       0.60       0.20       0.05       0.25        0.06     0.61   0.241
  O10017#1                   1.04       0.00       0.00       0.61       0.18       0.08       0.25        0.04     0.39   0.245
  O10025#1                   1.04       0.00       0.00       0.61       0.18       0.04       0.22        0.04     0.41   0.209
  O10049#1                   1.04       0.00       0.00       0.61       0.18       0.06       0.24        0.02     0.22   0.230
  O10055#1                   1.04       0.00       0.00       0.83       0.19       0.00       0.19        0.17     1.98   0.186
  O10067#1                   1.04       0.00       0.00       0.83       0.19       0.00       0.19        0.09     0.89   0.184
  O10082#1                   1.04       0.00       0.00       0.61       0.18       0.08       0.26        0.01     0.14   0.252
  O10115#1                   1.04       0.00       0.00       0.83       0.19       0.00       0.19        0.13     1.06   0.179
  O10142#1                   1.04       0.00       0.00       0.83       0.19       0.00       0.19        0.11     0.93   0.180
  O10162#1                   1.04       0.00       0.00       0.83       0.19       0.00       0.19        0.10     0.85   0.182
  O10259#1                   1.04       0.00       0.00       0.84       0.00       0.21       0.21        0.01     0.07   0.198
  O10266#1                   1.04       0.00       0.00       0.83       0.19       0.00       0.19        0.08     0.83   0.185
  O10295#1                   1.04       0.00       0.00       0.62       0.39       0.00       0.39        0.93    10.29   0.370
  O11057#1                   1.04       0.00       0.00       0.72       0.20       0.11       0.31        0.24     2.02   0.297
  O11066#1                   1.04       0.00       0.00       0.70       0.20       0.13       0.33        0.21     1.76   0.316
  O11102#1                   1.04       0.00       0.00       0.72       0.20       0.10       0.29        0.13     1.12   0.280
  O11128#1                   1.04       0.00       0.00       0.72       0.20       0.11       0.30        0.16     1.32   0.292
  O11181#1                   1.04       0.00       0.00       0.68       0.20       0.15       0.35        0.07     0.63   0.335
  O11190#1                   1.04       0.00       0.00       0.71       0.20       0.13       0.32        0.22     1.85   0.312
  O11207#1                   1.04       0.00       0.00       0.70       0.20       0.13       0.33        0.09     0.78   0.313
  O11220#1                   1.04       0.00       0.00       0.72       0.20       0.11       0.31        0.14     1.20   0.298
  O11254#1                   1.04       0.00       0.00       0.71       0.20       0.12       0.32        0.13     1.10   0.309
  O14012#1                   1.04       0.00       0.00       0.82       0.09       0.12       0.21        0.22     1.65   0.203
  O14035#1                   1.04       0.00       0.00       0.82       0.09       0.10       0.19        0.21     1.47   0.183
  O14059#1                   1.04       0.00       0.00       0.81       0.09       0.14       0.23        0.15     1.19   0.219
  O14068#1                   1.04       0.00       0.00       0.81       0.10       0.09       0.18        0.19     1.34   0.177
  O14080#1                   1.04       0.00       0.00       0.82       0.09       0.08       0.17        0.16     1.10   0.163
  O14144#1                   1.04       0.00       0.00       0.83       0.19       0.00       0.19        0.10     1.15   0.185
  O14161#1                   1.04       0.00       0.00       0.82       0.09       0.12       0.21        0.19     1.44   0.200
  O15006#1                   1.04       0.00       0.00       0.72       0.20       0.11       0.31        0.33     2.72   0.297
  O15054#1                   1.04       0.00       0.00       0.72       0.20       0.12       0.31        0.12     0.96   0.301
  O15062#1                   1.04       0.00       0.00       0.72       0.20       0.11       0.31        0.17     1.44   0.296
  O15134#1                   1.04       0.00       0.00       0.72       0.20       0.10       0.30        0.42     3.57   0.286
  O18102#1                   1.04       0.00       0.00       0.81       0.10       0.08       0.18        0.02     0.17   0.172
  O18103#1                   1.04       0.00       0.00       0.81       0.10       0.04       0.14        0.09     0.71   0.135
  O18120#1                   1.04       0.00       0.00       0.72       0.19       0.05       0.24        0.08     0.64   0.235
  O18139#1                   1.04       0.00       0.00       0.81       0.10       0.07       0.17        0.22     1.67   0.162
  O18141#1                   1.04       0.00       0.00       0.72       0.20       0.09       0.29        0.07     0.63   0.275
  O18159#1                   1.04       0.00       0.00       0.72       0.20       0.09       0.28        0.07     0.59   0.271
  O18246#1                   1.04       0.00       0.00       0.72       0.19       0.03       0.22        0.19     1.44   0.212
  O22082#1                   1.04       0.00       0.00       0.72       0.20       0.09       0.28        0.07     0.64   0.270
  O22090#1                   1.04       0.00       0.00       0.72       0.20       0.09       0.29        0.06     0.54   0.275
  O22095#1                   1.04       0.00       0.00       0.72       0.20       0.09       0.29        0.07     0.57   0.276
  O22140#1                   1.04       0.00       0.00       0.72       0.20       0.09       0.28        0.09     0.82   0.271
  O22160#1                   1.04       0.00       0.00       0.72       0.20       0.09       0.28        0.09     0.73   0.274
  O22171#1                   1.04       0.00       0.00       0.72       0.19       0.08       0.27        0.08     0.66   0.263
  P02195#1                   1.04       0.00       0.00       0.72       0.18       0.03       0.21        0.49     3.64   0.201
  P02244#1                   1.04       0.00       0.00       0.72       0.19       0.04       0.23        0.17     1.29   0.224
  P03102#1                   1.04       0.00       0.00       0.31       0.39       0.00       0.39        0.14     0.69   0.374
  P03105#1                   1.04       0.00       0.00       0.31       0.55       0.00       0.55        0.08     0.45   0.525
  P06017#1                   1.04       0.00       0.00       0.72       0.19       0.05       0.25        0.20     1.65   0.235
  P06073#1                   1.04       0.00       0.00       0.72       0.18       0.02       0.20        0.70     5.10   0.194
  P06106#1                   1.04       0.00       0.00       0.72       0.19       0.03       0.21        0.48     3.60   0.206
  P06123#1                   1.04       0.00       0.00       0.52       0.49       0.00       0.49        0.09     1.11   0.466
  P06124#1                   1.04       0.00       0.00       0.52       0.48       0.00       0.48        0.41     4.17   0.459
  P07009#1                   1.04       0.00       0.00       0.72       0.20       0.12       0.31        0.14     1.12   0.300
  P07029#1                   1.04       0.00       0.00       0.72       0.20       0.11       0.31        0.13     1.04   0.297
  P07117#1                   1.04       0.00       0.00       0.72       0.20       0.10       0.30        0.20     1.73   0.287
  P07153#1                   1.04       0.00       0.00       0.71       0.20       0.12       0.32        0.15     1.22   0.304
  P07163#1                   1.04       0.00       0.00       0.72       0.20       0.11       0.31        0.10     0.81   0.297
  P10049#1                   1.04       0.00       0.00       0.61       0.18       0.04       0.22        0.06     0.65   0.210
  P10051#1                   1.04       0.00       0.00       0.78       0.10       0.16       0.26        0.04     0.33   0.246
  P10051#2                   1.04       0.00       0.00       0.60       0.20       0.04       0.24        0.04     0.46   0.227
  P10057#1                   1.04       0.00       0.00       0.81       0.10       0.11       0.21        0.25     1.80   0.197
  P10057#2                   1.04       0.00       0.00       0.60       0.20       0.04       0.23        0.06     0.63   0.226
  P10058#1                   1.04       0.00       0.00       0.67       0.10       0.04       0.14        0.05     0.46   0.138
  P10068#1                   1.04       0.00       0.00       0.61       0.18       0.04       0.21        0.03     0.34   0.206
  P10074#1                   1.04       0.00       0.00       0.61       0.17       0.02       0.19        0.07     0.69   0.187
  P10080#1                   1.04       0.00       0.00       0.61       0.17       0.02       0.19        0.07     0.69   0.182
  P10089#1                   1.04       0.00       0.00       0.61       0.17       0.02       0.20        0.05     0.54   0.191
  P11014#1                   1.04       0.00       0.00       0.70       0.20       0.13       0.33        0.12     1.00   0.316
  P11032#1                   1.04       0.00       0.00       0.69       0.20       0.15       0.34        0.07     0.67   0.331
  P11052#1                   1.04       0.00       0.00       0.72       0.20       0.12       0.31        0.16     1.31   0.300
  P11074#1                   1.04       0.00       0.00       0.69       0.20       0.14       0.34        0.16     1.42   0.329
  P11109#1                   1.04       0.00       0.00       0.68       0.20       0.15       0.35        0.13     1.29   0.338
  P11144#1                   1.04       0.00       0.00       0.72       0.20       0.11       0.30        0.24     1.98   0.291
  P11159#1                   1.04       0.00       0.00       0.72       0.20       0.11       0.31        0.26     2.16   0.296
  P15001#1                   1.04       0.00       0.00       0.69       0.20       0.14       0.34        0.04     0.41   0.329
  P15005#1                   1.04       0.00       0.00       0.70       0.20       0.13       0.33        0.17     1.47   0.317
  P15036#1                   1.04       0.00       0.00       0.72       0.20       0.09       0.29        0.28     2.42   0.275
  P15173#1                   1.04       0.00       0.00       0.72       0.20       0.11       0.31        0.22     1.78   0.296
  P15192#1                   1.04       0.00       0.00       0.71       0.20       0.13       0.32        0.17     1.43   0.312
  P15203#1                   1.04       0.00       0.00       0.72       0.20       0.12       0.31        0.32     2.61   0.301
  P18031.1#1                 1.04       0.00       0.00       0.67       0.20       0.17       0.36        0.04     0.47   0.350
  P18033#1                   1.04       0.00       0.00       0.66       0.20       0.18       0.38        0.03     0.32   0.361
  P18033#2                   1.04       0.00       0.00       0.67       0.20       0.16       0.36        0.05     0.49   0.348
  P18036.1#1                 1.04       0.00       0.00       0.70       0.20       0.13       0.33        0.05     0.46   0.316
  P18038#1                   1.04       0.00       0.00       0.77       0.10       0.17       0.27        0.02     0.17   0.258
  P18038#2                   1.04       0.00       0.00       0.67       0.20       0.17       0.37        0.04     0.47   0.352
  P18043#1                   1.04       0.00       0.00       0.69       0.20       0.14       0.34        0.18     1.63   0.324
  P18043#2                   1.04       0.00       0.00       0.75       0.10       0.18       0.28        0.04     0.48   0.273
  P18046#1                   1.04       0.00       0.00       0.67       0.20       0.16       0.36        0.09     0.94   0.343
  P18046#2                   1.04       0.00       0.00       0.67       0.20       0.17       0.37        0.04     0.48   0.352
  P18046#3                   1.04       0.00       0.00       0.76       0.10       0.18       0.28        0.05     0.58   0.265
  P18047#1                   1.04       0.00       0.00       0.67       0.20       0.16       0.36        0.03     0.30   0.347
  P18048#1                   1.04       0.00       0.00       0.67       0.20       0.17       0.36        0.03     0.29   0.350
  P18049#1                   1.04       0.00       0.00       0.66       0.20       0.17       0.37        0.03     0.29   0.355
  P18050#1                   1.04       0.00       0.00       0.67       0.20       0.16       0.36        0.03     0.31   0.348
  P18051#1                   1.04       0.00       0.00       0.67       0.20       0.17       0.37        0.04     0.39   0.351
  P18054#1                   1.04       0.00       0.00       0.67       0.20       0.16       0.36        0.05     0.57   0.349
  P18151#1                   1.04       0.00       0.00       0.82       0.09       0.11       0.20        0.28     2.01   0.194
  P18155#1                   1.04       0.00       0.00       0.82       0.09       0.12       0.21        0.19     1.36   0.197
  P18166#1                   1.04       0.00       0.00       0.73       0.10       0.20       0.30        0.02     0.28   0.292
  P18170#1                   1.04       0.00       0.00       0.67       0.20       0.17       0.37        0.03     0.38   0.351
  P18172#1                   1.04       0.00       0.00       0.65       0.20       0.18       0.38        0.02     0.20   0.365
  P18215#1                   1.04       0.00       0.00       0.66       0.20       0.17       0.37        0.03     0.33   0.358
  P22021#1                   1.04       0.00       0.00       0.66       0.20       0.17       0.37        0.03     0.32   0.354
  P22021#2                   1.04       0.00       0.00       0.78       0.10       0.16       0.26        0.09     0.85   0.248
  P22136#1                   1.04       0.00       0.00       0.76       0.14       0.04       0.18        0.13     0.98   0.171
  P22137#1                   1.04       0.00       0.00       0.76       0.15       0.07       0.22        0.07     0.55   0.211
  P22174#1                   1.04       0.00       0.00       0.69       0.20       0.14       0.34        0.12     1.12   0.328
  Q02002#1                   1.04       0.00       0.00       0.99       0.05       0.00       0.05        0.00     0.04   0.046
  Q02022#1                   1.04       0.00       0.00       0.99       0.05       0.00       0.05        0.00     0.02   0.047
  Q02024#1                   1.04       0.00       0.00       0.99       0.05       0.00       0.05        0.00     0.01   0.049
  Q02025#1                   1.04       0.00       0.00       0.99       0.05       0.00       0.05        0.00     0.02   0.048
  Q02026#1                   1.04       0.00       0.00       0.99       0.05       0.00       0.05        0.00     0.03   0.047
  Q03001#1                   1.04       0.00       0.00       0.99       0.05       0.00       0.05        0.01     0.04   0.045
  Q03066#1                   1.04       0.00       0.00       0.99       0.04       0.00       0.04        0.01     0.09   0.042
  Q03067#1                   1.04       0.00       0.00       0.16       0.20       0.00       0.20        0.06     0.28   0.196
  Q03080#1                   1.04       0.00       0.00       0.16       0.29       0.00       0.29        0.05     0.24   0.274
  Q03085#1                   1.04       0.00       0.00       0.16       0.23       0.00       0.23        0.06     0.27   0.218
  Q03089#1                   1.04       0.00       0.00       0.00       0.33       0.00       0.33        0.04     0.19   0.318
  Q03105#1                   1.04       0.00       0.00       0.72       0.18       0.02       0.20        0.53     3.86   0.194
  Q03167#1                   1.04       0.00       0.00       0.99       0.05       0.00       0.05        0.00     0.04   0.046
  Q06005#1                   1.04       0.00       0.00       0.99       0.04       0.00       0.04        0.01     0.07   0.040
  Q06038#1                   1.04       0.00       0.00       0.83       0.20       0.00       0.20        0.04     0.46   0.190
  Q07122#1                   1.04       0.00       0.00       0.00       0.61       0.00       0.61        0.03     0.13   0.590
  Q07130#1                   1.04       0.00       0.00       0.31       0.50       0.00       0.50        0.10     0.52   0.481
  Q07135#1                   1.04       0.00       0.00       0.31       0.41       0.00       0.41        0.13     0.66   0.395
  Q07147#1                   1.04       0.00       0.00       0.00       0.56       0.00       0.56        0.03     0.14   0.535
  Q07150#1                   1.04       0.00       0.00       0.00       0.07       0.00       0.07        0.05     0.29   0.063
  Q07176#1                   1.04       0.00       0.00       0.68       0.10       0.00       0.10        0.04     0.18   0.099
  Q07189#1                   1.04       0.00       0.00       0.68       0.11       0.00       0.11        0.04     0.18   0.108
  Q07191#1                   1.04       0.00       0.00       0.68       0.11       0.00       0.11        0.04     0.18   0.107
  Q07193#1                   1.04       0.00       0.00       0.68       0.33       0.00       0.33        0.01     0.04   0.315
  Q07194#1                   1.04       0.00       0.00       0.68       0.10       0.00       0.10        0.04     0.19   0.093
  Q07211#1                   1.04       0.00       0.00       0.68       0.20       0.00       0.20        0.03     0.12   0.196
  Q07212#1                   1.04       0.00       0.00       0.68       0.27       0.00       0.27        0.02     0.08   0.259
  Q07213#1                   1.04       0.00       0.00       0.68       0.31       0.00       0.31        0.01     0.06   0.297
  Q07218#1                   1.04       0.00       0.00       0.68       0.18       0.00       0.18        0.03     0.13   0.177
  Q07219#1                   1.04       0.00       0.00       0.68       0.24       0.00       0.24        0.02     0.10   0.231
  Q07220#1                   1.04       0.00       0.00       0.68       0.17       0.00       0.17        0.03     0.14   0.163
  Q07226#1                   1.04       0.00       0.00       0.68       0.10       0.00       0.10        0.04     0.19   0.094
  Q07227#1                   1.04       0.00       0.00       0.68       0.21       0.00       0.21        0.02     0.12   0.206
  Q07228#1                   1.04       0.00       0.00       0.68       0.19       0.00       0.19        0.03     0.13   0.181
  Q07231#1                   1.04       0.00       0.00       0.68       0.11       0.00       0.11        0.04     0.17   0.108
  Q07238#1                   1.04       0.00       0.00       0.68       0.05       0.00       0.05        0.05     0.23   0.052
  Q18197#1                   1.04       0.00       0.00       0.65       0.20       0.19       0.38        0.01     0.16   0.369
  Q18199#1                   1.04       0.00       0.00       0.66       0.20       0.17       0.37        0.03     0.39   0.355
  Q18207#1                   1.04       0.00       0.00       0.65       0.20       0.19       0.39        0.01     0.17   0.371
  Q18214#1                   1.04       0.00       0.00       0.74       0.10       0.20       0.30        0.03     0.36   0.290
  Q18221#1                   1.04       0.00       0.00       0.66       0.20       0.17       0.37        0.02     0.23   0.356
  Q18223#1                   1.04       0.00       0.00       0.73       0.10       0.20       0.30        0.01     0.22   0.292
  Q18231#1                   1.04       0.00       0.00       0.66       0.20       0.17       0.37        0.04     0.45   0.353
  Q18238#1                   1.04       0.00       0.00       0.73       0.10       0.21       0.31        0.01     0.21   0.300
  Q18240#1                   1.04       0.00       0.00       0.66       0.20       0.17       0.37        0.03     0.38   0.357
  Q22110#1                   1.04       0.00       0.00       0.76       0.15       0.06       0.21        0.12     1.04   0.201
  Q22115#1                   1.04       0.00       0.00       0.76       0.15       0.08       0.22        0.05     0.38   0.215
  R02018#1                   1.04       0.00       0.00       0.78       0.14       0.00       0.14        0.04     0.18   0.133
  R02022#1                   1.04       0.00       0.00       0.78       0.23       0.00       0.23        0.01     0.06   0.224
  R02026#1                   1.04       0.00       0.00       0.78       0.23       0.00       0.23        0.01     0.07   0.222
  R02033#1                   1.04       0.00       0.00       0.57       0.46       0.00       0.46        0.04     0.53   0.445
  R02034#1                   1.04       0.00       0.00       0.57       0.46       0.00       0.46        0.06     0.74   0.443
  R02035#1                   1.04       0.00       0.00       0.57       0.46       0.00       0.46        0.08     0.96   0.440
  R02036#1                   1.04       0.00       0.00       0.57       0.46       0.00       0.46        0.09     1.02   0.439
  R02037#1                   1.04       0.00       0.00       0.57       0.46       0.00       0.46        0.08     0.97   0.440
  R02038#1                   1.04       0.00       0.00       0.57       0.46       0.00       0.46        0.04     0.48   0.446
  R02039#1                   1.04       0.00       0.00       0.57       0.46       0.00       0.46        0.08     0.90   0.441
  R02040#1                   1.04       0.00       0.00       0.57       0.46       0.00       0.46        0.04     0.53   0.445
  R02041#1                   1.04       0.00       0.00       0.57       0.47       0.00       0.47        0.02     0.26   0.449
  R02042#1                   1.04       0.00       0.00       0.57       0.46       0.00       0.46        0.05     0.57   0.445
  R02043#1                   1.04       0.00       0.00       0.57       0.47       0.00       0.47        0.03     0.39   0.447
  R02044#1                   1.04       0.00       0.00       0.57       0.46       0.00       0.46        0.05     0.60   0.444
  R02045#1                   1.04       0.00       0.00       0.57       0.46       0.00       0.46        0.05     0.59   0.444
  R02046#1                   1.04       0.00       0.00       0.57       0.46       0.00       0.46        0.08     0.94   0.440
  R02047#1                   1.04       0.00       0.00       0.57       0.47       0.00       0.47        0.03     0.40   0.447
  R02049#1                   1.04       0.00       0.00       0.57       0.46       0.00       0.46        0.07     0.84   0.441
  R02052#1                   1.04       0.00       0.00       0.57       0.46       0.00       0.46        0.03     0.42   0.446
  R02053#1                   1.04       0.00       0.00       0.57       0.47       0.00       0.47        0.02     0.30   0.448
  R02055#1                   1.04       0.00       0.00       0.99       0.05       0.00       0.05        0.00     0.03   0.046
  R02056#1                   1.04       0.00       0.00       0.99       0.04       0.00       0.04        0.01     0.05   0.043
  R02057#1                   1.04       0.00       0.00       0.99       0.04       0.00       0.04        0.01     0.07   0.041
  R02067#1                   1.04       0.00       0.00       0.99       0.04       0.00       0.04        0.01     0.06   0.042
  R02069#1                   1.04       0.00       0.00       0.99       0.05       0.00       0.05        0.01     0.05   0.044
  R02070#1                   1.04       0.00       0.00       0.99       0.05       0.00       0.05        0.00     0.03   0.046
  R02071#1                   1.04       0.00       0.00       0.99       0.05       0.00       0.05        0.00     0.03   0.047
  R02072#1                   1.04       0.00       0.00       0.99       0.05       0.00       0.05        0.00     0.03   0.046
  R02073#1                   1.04       0.00       0.00       0.99       0.05       0.00       0.05        0.00     0.01   0.049
  R02074#1                   1.04       0.00       0.00       0.99       0.04       0.00       0.04        0.01     0.08   0.039
  R03003#1                   1.04       0.00       0.00       0.78       0.21       0.00       0.21        0.01     0.09   0.205
  R03004#1                   1.04       0.00       0.00       0.78       0.23       0.00       0.23        0.01     0.07   0.221
  R03006#1                   1.04       0.00       0.00       0.78       0.20       0.00       0.20        0.02     0.11   0.193
  R03164#1                   1.04       0.00       0.00       0.99       0.04       0.00       0.04        0.01     0.06   0.042
  R03168#1                   1.04       0.00       0.00       0.99       0.05       0.00       0.05        0.00     0.03   0.047
  R03169#1                   1.04       0.00       0.00       0.99       0.05       0.00       0.05        0.00     0.02   0.049
  R03171#1                   1.04       0.00       0.00       0.78       0.14       0.00       0.14        0.04     0.17   0.138
  R03174#1                   1.04       0.00       0.00       0.78       0.08       0.00       0.08        0.05     0.25   0.074
  R03183#1                   1.04       0.00       0.00       0.78       0.19       0.00       0.19        0.02     0.13   0.179
  R03185#1                   1.04       0.00       0.00       0.78       0.11       0.00       0.11        0.04     0.20   0.109
  R03186#1                   1.04       0.00       0.00       0.78       0.06       0.00       0.06        0.06     0.28   0.056
  R03215#1                   1.04       0.00       0.00       0.78       0.20       0.00       0.20        0.02     0.11   0.193
  R03218#1                   1.04       0.00       0.00       0.78       0.14       0.00       0.14        0.04     0.18   0.132
  R03220#1                   1.04       0.00       0.00       0.78       0.17       0.00       0.17        0.03     0.14   0.164
  R03223#1                   1.04       0.00       0.00       0.78       0.14       0.00       0.14        0.04     0.18   0.131
  R03225#1                   1.04       0.00       0.00       0.78       0.17       0.00       0.17        0.03     0.15   0.159
  R03229#1                   1.04       0.00       0.00       0.78       0.16       0.00       0.16        0.03     0.16   0.151
  R03232#1                   1.04       0.00       0.00       0.78       0.17       0.00       0.17        0.03     0.15   0.161
  R03241#1                   1.04       0.00       0.00       0.78       0.19       0.00       0.19        0.02     0.12   0.184
  R03244#1                   1.04       0.00       0.00       0.78       0.19       0.00       0.19        0.02     0.13   0.179
  R03272#1                   1.04       0.00       0.00       0.78       0.20       0.00       0.20        0.02     0.11   0.189
  R06030#1                   1.04       0.00       0.00       0.57       0.46       0.00       0.46        0.05     0.63   0.444
  R07005#1                   1.04       0.00       0.00       0.78       0.06       0.00       0.06        0.06     0.29   0.054
  R14135#1                   1.04       0.00       0.00       0.07       0.75       0.13       0.89        0.46     5.02   0.851
  R14140#1                   1.04       0.00       0.00       0.29       0.01       0.12       0.13        0.00     0.00   0.126
  R18036#1                   1.04       0.00       0.00       1.03       0.01       0.00       0.01        0.01     0.06   0.007
  R18040#1                   1.04       0.00       0.00       0.20       0.29       0.23       0.52        0.15     1.09   0.502
  R18053#1                   1.04       0.00       0.00       0.20       0.30       0.32       0.61        0.27     1.78   0.588
  R18082#1                   1.04       0.00       0.00       0.20       0.30       0.28       0.58        0.10     0.71   0.556
  R18084#1                   1.04       0.00       0.00       0.20       0.30       0.32       0.62        0.08     0.49   0.596
  R18105#1                   1.04       0.00       0.00       0.20       0.30       0.25       0.55        0.13     0.91   0.525
  R18119#1                   1.04       0.00       0.00       0.20       0.29       0.20       0.50        0.17     1.31   0.477
  R18126#1                   1.04       0.00       0.00       0.20       0.30       0.28       0.58        0.14     0.97   0.553
  R18146#1                   1.04       0.00       0.00       0.20       0.29       0.23       0.52        0.10     0.73   0.501
  R18149#1                   1.04       0.00       0.00       0.20       0.30       0.30       0.60        0.09     0.60   0.576
  R18160#1                   1.04       0.00       0.00       0.28       0.03       0.47       0.50        0.06     0.37   0.481
  R18168#1                   1.04       0.00       0.00       0.28       0.05       0.42       0.47        0.05     0.27   0.455
  R18179#1                   1.04       0.00       0.00       0.16       0.44       0.26       0.70        0.27     2.25   0.676
  S02008#1                   1.04       0.00       0.00       0.78       0.14       0.00       0.14        0.04     0.18   0.135
  S02020#1                   1.04       0.00       0.00       0.78       0.12       0.00       0.12        0.04     0.20   0.114
  S02024#1                   1.04       0.00       0.00       0.78       0.15       0.00       0.15        0.03     0.16   0.147
  S02033#1                   1.04       0.00       0.00       0.78       0.05       0.00       0.05        0.06     0.31   0.044
  S03025#1                   1.04       0.00       0.00       0.78       0.06       0.00       0.06        0.06     0.27   0.062
  S03033#1                   1.04       0.00       0.00       0.78       0.23       0.00       0.23        0.01     0.06   0.225
  S03034#1                   1.04       0.00       0.00       0.78       0.25       0.00       0.25        0.00     0.04   0.236
  S03035#1                   1.04       0.00       0.00       0.78       0.10       0.00       0.10        0.05     0.22   0.096
  S14111#1                   1.04       0.00       0.00       0.00       0.99       0.00       0.99        0.11     1.38   0.947
  S18005#1                   1.04       0.00       0.00       0.20       0.29       0.15       0.44        0.17     1.32   0.421
  S18017#1                   1.04       0.00       0.00       0.18       0.37       0.19       0.56        0.16     1.34   0.535
  S18021#1                   1.04       0.00       0.00       0.20       0.29       0.21       0.51        0.10     0.73   0.486
  S18028#1                   1.04       0.00       0.00       0.20       0.29       0.22       0.51        0.10     0.71   0.489
  S18044#1                   1.04       0.00       0.00       0.26       0.10       0.13       0.23        0.07     0.36   0.223
  S18053#1                   1.04       0.00       0.00       0.20       0.29       0.21       0.50        0.10     0.75   0.482
  S18056#1                   1.04       0.00       0.00       0.20       0.29       0.21       0.50        0.10     0.74   0.484
  S18070#1                   1.04       0.00       0.00       0.22       0.22       0.12       0.35        0.17     1.32   0.333
  S18079#1                   1.04       0.00       0.00       0.17       0.39       0.20       0.59        0.23     1.88   0.565
  S18131#1                   1.04       0.00       0.00       1.03       0.01       0.00       0.01        0.01     0.03   0.006
  S22001#1                   1.04       0.00       0.00       0.20       0.29       0.22       0.52        0.09     0.67   0.498
  S22006#1                   1.04       0.00       0.00       1.03       0.00       0.00       0.00        0.01     0.03   0.005
  S22021#1                   1.04       0.00       0.00       0.20       0.29       0.17       0.46        0.16     1.26   0.440
  S22042#1                   1.04       0.00       0.00       0.20       0.29       0.17       0.46        0.17     1.36   0.441
  S22053#1                   1.04       0.00       0.00       1.03       0.00       0.00       0.00        0.01     0.04   0.004
  S22181#1                   1.04       0.00       0.00       0.00       0.94       0.00       0.94        0.43     3.49   0.900
  

  Analysis begun on:  Wed Jun 24 14:52:12 2026
  Analysis ended on:  Wed Jun 24 14:52:12 2026
  Total elapsed time: < 1 sec