
  EPA STORM WATER MANAGEMENT MODEL - VERSION 5.2 (Build 5.2.4)
  ------------------------------------------------------------

  WARNING 04: minimum elevation drop used for Conduit STMCUL00152_1
  WARNING 04: minimum elevation drop used for Conduit STMCUL00152_2
  WARNING 03: negative offset ignored for Link STMMN03929
  WARNING 03: negative offset ignored for Link STMMN04287
  WARNING 04: minimum elevation drop used for Conduit STMMN04442-S
  WARNING 02: maximum depth increased for Node DUMMH002
  WARNING 02: maximum depth increased for Node DUMMH003
  WARNING 02: maximum depth increased for Node DUMMH004
  WARNING 02: maximum depth increased for Node DUMMH00407
  WARNING 02: maximum depth increased for Node DUMMH005
  WARNING 02: maximum depth increased for Node DUMMH006
  WARNING 02: maximum depth increased for Node DUMMH007
  WARNING 02: maximum depth increased for Node DUMMH008
  WARNING 02: maximum depth increased for Node DUMMH01126
  WARNING 02: maximum depth increased for Node DUMMH01128
  WARNING 02: maximum depth increased for Node DUMMH01354_1
  WARNING 02: maximum depth increased for Node DUMMH017
  WARNING 02: maximum depth increased for Node DUMMH018
  WARNING 02: maximum depth increased for Node DUMMH019
  WARNING 02: maximum depth increased for Node DUMMH020
  WARNING 02: maximum depth increased for Node DUMMH02010
  WARNING 02: maximum depth increased for Node DUMMH02013
  WARNING 02: maximum depth increased for Node DUMMH02014
  WARNING 02: maximum depth increased for Node DUMMH02017
  WARNING 02: maximum depth increased for Node DUMMH02019
  WARNING 02: maximum depth increased for Node DUMMH02030
  WARNING 02: maximum depth increased for Node DUMMH02032
  WARNING 02: maximum depth increased for Node DUMMH02046
  WARNING 02: maximum depth increased for Node DUMMH021
  WARNING 02: maximum depth increased for Node DUMMH022
  WARNING 02: maximum depth increased for Node DUMMH023
  WARNING 02: maximum depth increased for Node DUMMH024
  WARNING 02: maximum depth increased for Node DUMMH02433
  WARNING 02: maximum depth increased for Node DUMMH026
  WARNING 02: maximum depth increased for Node DUMMH027
  WARNING 02: maximum depth increased for Node DUMMH028
  WARNING 02: maximum depth increased for Node DUMMH029
  WARNING 02: maximum depth increased for Node DUMMH030
  WARNING 02: maximum depth increased for Node DUMMH03002
  WARNING 02: maximum depth increased for Node DUMMH03070
  WARNING 02: maximum depth increased for Node DUMMH03072
  WARNING 02: maximum depth increased for Node DUMMH03078
  WARNING 02: maximum depth increased for Node DUMMH03079
  WARNING 02: maximum depth increased for Node DUMMH031
  WARNING 02: maximum depth increased for Node DUMMH032
  WARNING 02: maximum depth increased for Node DUMMH033
  WARNING 02: maximum depth increased for Node DUMMH034
  WARNING 02: maximum depth increased for Node DUMMH035
  WARNING 02: maximum depth increased for Node DUMMH036
  WARNING 02: maximum depth increased for Node DUMMH037
  WARNING 02: maximum depth increased for Node DUMMH038
  WARNING 02: maximum depth increased for Node DUMMH039
  WARNING 02: maximum depth increased for Node DUMMH041
  WARNING 02: maximum depth increased for Node DUMMH042
  WARNING 02: maximum depth increased for Node DUMMH043
  WARNING 02: maximum depth increased for Node DUMMH052
  WARNING 02: maximum depth increased for Node DUMMH053
  WARNING 02: maximum depth increased for Node DUMMH055
  WARNING 02: maximum depth increased for Node DUMMH060
  WARNING 02: maximum depth increased for Node DUMMH061
  WARNING 02: maximum depth increased for Node DUMMH062
  WARNING 02: maximum depth increased for Node DUMMH064
  WARNING 02: maximum depth increased for Node DUMMH065
  WARNING 02: maximum depth increased for Node DUMMH067
  WARNING 02: maximum depth increased for Node DUMMH068
  WARNING 02: maximum depth increased for Node DUMMH070
  WARNING 02: maximum depth increased for Node DUMMH071
  WARNING 02: maximum depth increased for Node DUMMH072
  WARNING 02: maximum depth increased for Node DUMMH073
  WARNING 02: maximum depth increased for Node DUMMH074
  WARNING 02: maximum depth increased for Node DUMMH075
  WARNING 02: maximum depth increased for Node DUMMH077
  WARNING 02: maximum depth increased for Node DUMMH078
  WARNING 02: maximum depth increased for Node DUMMH079
  WARNING 02: maximum depth increased for Node DUMMH080
  WARNING 02: maximum depth increased for Node DUMMH081
  WARNING 02: maximum depth increased for Node DUMMH083
  WARNING 02: maximum depth increased for Node DUMMH095
  WARNING 02: maximum depth increased for Node DUMMH109
  WARNING 02: maximum depth increased for Node DUMMH110
  WARNING 02: maximum depth increased for Node DUMMH111
  WARNING 02: maximum depth increased for Node DUMMH112
  WARNING 02: maximum depth increased for Node DUMMH120
  WARNING 02: maximum depth increased for Node DUMMH123
  WARNING 02: maximum depth increased for Node DUMMH124
  WARNING 02: maximum depth increased for Node DUMMH187
  WARNING 02: maximum depth increased for Node DUMMH191
  WARNING 02: maximum depth increased for Node DUMMH192
  WARNING 02: maximum depth increased for Node DUMMH194
  WARNING 02: maximum depth increased for Node DUMMH199
  WARNING 02: maximum depth increased for Node DUMMH201
  WARNING 02: maximum depth increased for Node DUMMH2027
  WARNING 02: maximum depth increased for Node DUMMH2028
  WARNING 02: maximum depth increased for Node DUMMH2029
  WARNING 02: maximum depth increased for Node DUMMH215
  WARNING 02: maximum depth increased for Node DUMMH223
  WARNING 02: maximum depth increased for Node DUMMH232
  WARNING 02: maximum depth increased for Node DUMMH241
  WARNING 02: maximum depth increased for Node DUMMH252
  WARNING 02: maximum depth increased for Node DUMMH259
  WARNING 02: maximum depth increased for Node DUMMH264
  WARNING 02: maximum depth increased for Node DUMMH294
  WARNING 02: maximum depth increased for Node DUMMH295
  WARNING 02: maximum depth increased for Node DUMMH296
  WARNING 02: maximum depth increased for Node DUMMH307
  WARNING 02: maximum depth increased for Node DUMMH308
  WARNING 02: maximum depth increased for Node DUMMH325
  WARNING 02: maximum depth increased for Node DUMMH326
  WARNING 02: maximum depth increased for Node DUMMH328
  WARNING 02: maximum depth increased for Node DUMMH332
  WARNING 02: maximum depth increased for Node DUMMH342
  WARNING 02: maximum depth increased for Node DUMMH343
  WARNING 02: maximum depth increased for Node DUMMH346
  WARNING 02: maximum depth increased for Node DUMMH348
  WARNING 02: maximum depth increased for Node DUMMH350
  WARNING 02: maximum depth increased for Node DUMMH353
  WARNING 02: maximum depth increased for Node DUMMH360
  WARNING 02: maximum depth increased for Node DUMMH379
  WARNING 02: maximum depth increased for Node DUMMH5849
  WARNING 02: maximum depth increased for Node DUMMH5870
  WARNING 02: maximum depth increased for Node DUMMH6664
  WARNING 02: maximum depth increased for Node DUMMH6682
  WARNING 02: maximum depth increased for Node DUMMH6707
  WARNING 02: maximum depth increased for Node DUMMH6820
  WARNING 02: maximum depth increased for Node DUMMH6865
  WARNING 02: maximum depth increased for Node DUMMH7001
  WARNING 02: maximum depth increased for Node STMMH02101
  WARNING 02: maximum depth increased for Node STMMH02308
  WARNING 02: maximum depth increased for Node STMMH02615
  WARNING 02: maximum depth increased for Node STMMH02616
  WARNING 02: maximum depth increased for Node STMMH02617
  WARNING 02: maximum depth increased for Node STMMH02618
  WARNING 02: maximum depth increased for Node STMMH02619
  WARNING 02: maximum depth increased for Node STMMH02622
  WARNING 02: maximum depth increased for Node STMMH02623
  WARNING 02: maximum depth increased for Node STMMH02627
  WARNING 02: maximum depth increased for Node STMMH02629
  WARNING 02: maximum depth increased for Node STMMH02630
  WARNING 02: maximum depth increased for Node STMMH02631
  WARNING 02: maximum depth increased for Node STMMH02638
  WARNING 02: maximum depth increased for Node STMMH02639
  WARNING 02: maximum depth increased for Node STMMH02659
  WARNING 02: maximum depth increased for Node STMMH02660
  WARNING 02: maximum depth increased for Node STMMH02666
  WARNING 02: maximum depth increased for Node STMMH02670
  WARNING 02: maximum depth increased for Node STMMH02671
  WARNING 02: maximum depth increased for Node STMMH02672
  WARNING 02: maximum depth increased for Node STMMH02673
  WARNING 02: maximum depth increased for Node STMMH03149
  WARNING 02: maximum depth increased for Node STMMH03150
  WARNING 02: maximum depth increased for Node STMMH03159
  WARNING 02: maximum depth increased for Node STMMH03160
  WARNING 02: maximum depth increased for Node STMMH03161
  WARNING 02: maximum depth increased for Node STMMH03162
  WARNING 02: maximum depth increased for Node STMMH03163
  WARNING 02: maximum depth increased for Node STMMH03170
  WARNING 02: maximum depth increased for Node STMMH03171
  WARNING 02: maximum depth increased for Node STMMH03175
  WARNING 02: maximum depth increased for Node STMMH03179
  WARNING 02: maximum depth increased for Node STMMH03180
  WARNING 02: maximum depth increased for Node STMMH03181
  WARNING 02: maximum depth increased for Node STMMH03193
  WARNING 02: maximum depth increased for Node STMMH03194
  WARNING 02: maximum depth increased for Node STMMH03195
  WARNING 02: maximum depth increased for Node STMMH03196
  WARNING 02: maximum depth increased for Node STMMH03197
  WARNING 02: maximum depth increased for Node STMMH03198
  WARNING 02: maximum depth increased for Node STMMH03200
  WARNING 02: maximum depth increased for Node STMMH03202
  WARNING 02: maximum depth increased for Node STMMH03203
  WARNING 02: maximum depth increased for Node STMMH03204
  WARNING 02: maximum depth increased for Node STMMH03206
  WARNING 02: maximum depth increased for Node STMMH03207
  WARNING 02: maximum depth increased for Node STMMH03208
  WARNING 02: maximum depth increased for Node STMMH03209
  WARNING 02: maximum depth increased for Node STMMH03210
  WARNING 02: maximum depth increased for Node STMMH03211
  WARNING 02: maximum depth increased for Node STMMH03218
  WARNING 02: maximum depth increased for Node STMMH03219
  WARNING 02: maximum depth increased for Node STMMH03220
  WARNING 02: maximum depth increased for Node STMMH03226
  WARNING 02: maximum depth increased for Node STMMH03227
  WARNING 02: maximum depth increased for Node STMMH03228
  WARNING 02: maximum depth increased for Node STMMH03361
  WARNING 02: maximum depth increased for Node STMMH03362
  WARNING 02: maximum depth increased for Node STMMH03370
  WARNING 02: maximum depth increased for Node STMMH03372
  WARNING 02: maximum depth increased for Node STMMH03377
  WARNING 02: maximum depth increased for Node STMMH03379
  WARNING 02: maximum depth increased for Node STMMH03380
  WARNING 02: maximum depth increased for Node STMMH03381
  WARNING 02: maximum depth increased for Node STMMH03382
  WARNING 02: maximum depth increased for Node STMMH03386
  WARNING 02: maximum depth increased for Node STMMH03387
  WARNING 02: maximum depth increased for Node STMMH03389
  WARNING 02: maximum depth increased for Node STMMH03390
  WARNING 02: maximum depth increased for Node STMMH03391
  WARNING 02: maximum depth increased for Node STMMH03392
  WARNING 02: maximum depth increased for Node STMMH03393
  WARNING 02: maximum depth increased for Node STMMH03394
  WARNING 02: maximum depth increased for Node STMMH03395
  WARNING 02: maximum depth increased for Node STMMH03396
  WARNING 02: maximum depth increased for Node STMMH03401
  WARNING 02: maximum depth increased for Node STMMH03405
  WARNING 02: maximum depth increased for Node STMMH03407
  WARNING 02: maximum depth increased for Node STMMH03408
  WARNING 02: maximum depth increased for Node STMMH03409
  WARNING 02: maximum depth increased for Node STMMH03410
  WARNING 02: maximum depth increased for Node STMMH03411
  WARNING 02: maximum depth increased for Node STMMH03412
  WARNING 02: maximum depth increased for Node STMMH03413
  WARNING 02: maximum depth increased for Node STMMH03415
  WARNING 02: maximum depth increased for Node STMMH03416
  WARNING 02: maximum depth increased for Node STMMH03417
  WARNING 02: maximum depth increased for Node STMMH03418
  WARNING 02: maximum depth increased for Node STMMH03420
  WARNING 02: maximum depth increased for Node STMMH03421
  WARNING 02: maximum depth increased for Node STMMH03423
  WARNING 02: maximum depth increased for Node STMMH03424
  WARNING 02: maximum depth increased for Node STMMH03428
  WARNING 02: maximum depth increased for Node STMMH03429
  WARNING 02: maximum depth increased for Node STMMH03430
  WARNING 02: maximum depth increased for Node STMMH03431
  WARNING 02: maximum depth increased for Node STMMH03432
  WARNING 02: maximum depth increased for Node STMMH03434
  WARNING 02: maximum depth increased for Node STMMH03435
  WARNING 02: maximum depth increased for Node STMMH03436
  WARNING 02: maximum depth increased for Node STMMH03437
  WARNING 02: maximum depth increased for Node STMMH03438
  WARNING 02: maximum depth increased for Node STMMH03439
  WARNING 02: maximum depth increased for Node STMMH03440
  WARNING 02: maximum depth increased for Node STMMH03443
  WARNING 02: maximum depth increased for Node STMMH03444
  WARNING 02: maximum depth increased for Node STMMH03445
  WARNING 02: maximum depth increased for Node STMMH03446
  WARNING 02: maximum depth increased for Node STMMH03447
  WARNING 02: maximum depth increased for Node STMMH03449
  WARNING 02: maximum depth increased for Node STMMH03450
  WARNING 02: maximum depth increased for Node STMMH03451
  WARNING 02: maximum depth increased for Node STMMH03452
  WARNING 02: maximum depth increased for Node STMMH03453
  WARNING 02: maximum depth increased for Node STMMH03454
  WARNING 02: maximum depth increased for Node STMMH03455
  WARNING 02: maximum depth increased for Node STMMH03456
  WARNING 02: maximum depth increased for Node STMMH03457
  WARNING 02: maximum depth increased for Node STMMH03458
  WARNING 02: maximum depth increased for Node STMMH03459
  WARNING 02: maximum depth increased for Node STMMH03460
  WARNING 02: maximum depth increased for Node STMMH03463
  WARNING 02: maximum depth increased for Node STMMH03464
  WARNING 02: maximum depth increased for Node STMMH03465
  WARNING 02: maximum depth increased for Node STMMH03466
  WARNING 02: maximum depth increased for Node STMMH03467
  WARNING 02: maximum depth increased for Node STMMH03468
  WARNING 02: maximum depth increased for Node STMMH03469
  WARNING 02: maximum depth increased for Node STMMH03470
  WARNING 02: maximum depth increased for Node STMMH03471
  WARNING 02: maximum depth increased for Node STMMH03472
  WARNING 02: maximum depth increased for Node STMMH03473
  WARNING 02: maximum depth increased for Node STMMH03474
  WARNING 02: maximum depth increased for Node STMMH03475
  WARNING 02: maximum depth increased for Node STMMH03476
  WARNING 02: maximum depth increased for Node STMMH03479
  WARNING 02: maximum depth increased for Node STMMH03480
  WARNING 02: maximum depth increased for Node STMMH03481
  WARNING 02: maximum depth increased for Node STMMH03482
  WARNING 02: maximum depth increased for Node STMMH03483
  WARNING 02: maximum depth increased for Node STMMH03484
  WARNING 02: maximum depth increased for Node STMMH03485
  WARNING 02: maximum depth increased for Node STMMH03486
  WARNING 02: maximum depth increased for Node STMMH03487
  WARNING 02: maximum depth increased for Node STMMH03489
  WARNING 02: maximum depth increased for Node STMMH03490
  WARNING 02: maximum depth increased for Node STMMH03491
  WARNING 02: maximum depth increased for Node STMMH03492
  WARNING 02: maximum depth increased for Node STMMH03493
  WARNING 02: maximum depth increased for Node STMMH03494
  WARNING 02: maximum depth increased for Node STMMH03496
  WARNING 02: maximum depth increased for Node STMMH03497
  WARNING 02: maximum depth increased for Node STMMH03498
  WARNING 02: maximum depth increased for Node STMMH03499
  WARNING 02: maximum depth increased for Node STMMH03500
  WARNING 02: maximum depth increased for Node STMMH03503
  WARNING 02: maximum depth increased for Node STMMH03505
  WARNING 02: maximum depth increased for Node STMMH03506
  WARNING 02: maximum depth increased for Node STMMH03507
  WARNING 02: maximum depth increased for Node STMMH03508
  WARNING 02: maximum depth increased for Node STMMH03509
  WARNING 02: maximum depth increased for Node STMMH03512
  WARNING 02: maximum depth increased for Node STMMH03513
  WARNING 02: maximum depth increased for Node STMMH03517
  WARNING 02: maximum depth increased for Node STMMH03518
  WARNING 02: maximum depth increased for Node STMMH03520
  WARNING 02: maximum depth increased for Node STMMH03521
  WARNING 02: maximum depth increased for Node STMMH03525
  WARNING 02: maximum depth increased for Node STMMH03526
  WARNING 02: maximum depth increased for Node STMMH03529
  WARNING 02: maximum depth increased for Node STMMH03532
  WARNING 02: maximum depth increased for Node STMMH03533
  WARNING 02: maximum depth increased for Node STMMH03534
  WARNING 02: maximum depth increased for Node STMMH03535
  WARNING 02: maximum depth increased for Node STMMH03536
  WARNING 02: maximum depth increased for Node STMMH03537
  WARNING 02: maximum depth increased for Node STMMH03539
  WARNING 02: maximum depth increased for Node STMMH03540
  WARNING 02: maximum depth increased for Node STMMH03541
  WARNING 02: maximum depth increased for Node STMMH03542
  WARNING 02: maximum depth increased for Node STMMH03545
  WARNING 02: maximum depth increased for Node STMMH03546
  WARNING 02: maximum depth increased for Node STMMH03547
  WARNING 02: maximum depth increased for Node STMMH03548
  WARNING 02: maximum depth increased for Node STMMH03549
  WARNING 02: maximum depth increased for Node STMMH03550
  WARNING 02: maximum depth increased for Node STMMH03552
  WARNING 02: maximum depth increased for Node STMMH03553
  WARNING 02: maximum depth increased for Node STMMH03554
  WARNING 02: maximum depth increased for Node STMMH03555
  WARNING 02: maximum depth increased for Node STMMH03556
  WARNING 02: maximum depth increased for Node STMMH03557
  WARNING 02: maximum depth increased for Node STMMH03559
  WARNING 02: maximum depth increased for Node STMMH03560
  WARNING 02: maximum depth increased for Node STMMH03563
  WARNING 02: maximum depth increased for Node STMMH03564
  WARNING 02: maximum depth increased for Node STMMH03565
  WARNING 02: maximum depth increased for Node STMMH03568
  WARNING 02: maximum depth increased for Node STMMH03569
  WARNING 02: maximum depth increased for Node STMMH03570
  WARNING 02: maximum depth increased for Node STMMH03574
  WARNING 02: maximum depth increased for Node STMMH03575
  WARNING 02: maximum depth increased for Node STMMH03577
  WARNING 02: maximum depth increased for Node STMMH03578
  WARNING 02: maximum depth increased for Node STMMH03581
  WARNING 02: maximum depth increased for Node STMMH03582
  WARNING 02: maximum depth increased for Node STMMH03588
  WARNING 02: maximum depth increased for Node STMMH03589
  WARNING 02: maximum depth increased for Node STMMH03596
  WARNING 02: maximum depth increased for Node STMMH03597
  WARNING 02: maximum depth increased for Node STMMH03600
  WARNING 02: maximum depth increased for Node STMMH03601
  WARNING 02: maximum depth increased for Node STMMH03602
  WARNING 02: maximum depth increased for Node STMMH03603
  WARNING 02: maximum depth increased for Node STMMH03604
  WARNING 02: maximum depth increased for Node STMMH03606
  WARNING 02: maximum depth increased for Node STMMH03612
  WARNING 02: maximum depth increased for Node STMMH03614
  WARNING 02: maximum depth increased for Node STMMH03643
  WARNING 02: maximum depth increased for Node STMMH03644
  WARNING 02: maximum depth increased for Node STMMH03654
  WARNING 02: maximum depth increased for Node STMMH03655
  WARNING 02: maximum depth increased for Node STMMH03656
  WARNING 02: maximum depth increased for Node STMMH03657
  WARNING 02: maximum depth increased for Node STMMH03665
  WARNING 02: maximum depth increased for Node STMMH03666
  WARNING 02: maximum depth increased for Node STMMH03668
  WARNING 02: maximum depth increased for Node STMMH03669
  WARNING 02: maximum depth increased for Node STMMH03672
  WARNING 02: maximum depth increased for Node STMMH03673
  WARNING 02: maximum depth increased for Node STMMH03674
  WARNING 02: maximum depth increased for Node STMMH03675
  WARNING 02: maximum depth increased for Node STMMH03676
  WARNING 02: maximum depth increased for Node STMMH03677
  WARNING 02: maximum depth increased for Node STMMH03678
  WARNING 02: maximum depth increased for Node STMMH03679
  WARNING 02: maximum depth increased for Node STMMH03680
  WARNING 02: maximum depth increased for Node STMMH03681
  WARNING 02: maximum depth increased for Node STMMH03682
  WARNING 02: maximum depth increased for Node STMMH03683
  WARNING 02: maximum depth increased for Node STMMH03684
  WARNING 02: maximum depth increased for Node STMMH03685
  WARNING 02: maximum depth increased for Node STMMH03686
  WARNING 02: maximum depth increased for Node STMMH03687
  WARNING 02: maximum depth increased for Node STMMH03688
  WARNING 02: maximum depth increased for Node STMMH03690
  WARNING 02: maximum depth increased for Node STMMH03694
  WARNING 02: maximum depth increased for Node STMMH03695
  WARNING 02: maximum depth increased for Node STMMH03696
  WARNING 02: maximum depth increased for Node STMMH03703
  WARNING 02: maximum depth increased for Node STMMH03704
  WARNING 02: maximum depth increased for Node STMMH03705
  WARNING 02: maximum depth increased for Node STMMH03706
  WARNING 02: maximum depth increased for Node STMMH03707
  WARNING 02: maximum depth increased for Node STMMH03708
  WARNING 02: maximum depth increased for Node STMMH03722
  WARNING 02: maximum depth increased for Node STMMH03730
  WARNING 02: maximum depth increased for Node STMMH03731
  WARNING 02: maximum depth increased for Node STMMH03732
  WARNING 02: maximum depth increased for Node STMMH03733
  WARNING 02: maximum depth increased for Node STMMH03734
  WARNING 02: maximum depth increased for Node STMMH03735
  WARNING 02: maximum depth increased for Node STMMH03736
  WARNING 02: maximum depth increased for Node STMMH03737
  WARNING 02: maximum depth increased for Node STMMH03738
  WARNING 02: maximum depth increased for Node STMMH03739
  WARNING 02: maximum depth increased for Node STMMH03741
  WARNING 02: maximum depth increased for Node STMMH03742
  WARNING 02: maximum depth increased for Node STMMH03743
  WARNING 02: maximum depth increased for Node STMMH03745
  WARNING 02: maximum depth increased for Node STMMH03746
  WARNING 02: maximum depth increased for Node STMMH03747
  WARNING 02: maximum depth increased for Node STMMH03748
  WARNING 02: maximum depth increased for Node STMMH03749
  WARNING 02: maximum depth increased for Node STMMH03750
  WARNING 02: maximum depth increased for Node STMMH03751
  WARNING 02: maximum depth increased for Node STMMH03752
  WARNING 02: maximum depth increased for Node STMMH03753
  WARNING 02: maximum depth increased for Node STMMH03754
  WARNING 02: maximum depth increased for Node STMMH03755
  WARNING 02: maximum depth increased for Node STMMH03771
  WARNING 02: maximum depth increased for Node STMMH03772
  WARNING 02: maximum depth increased for Node STMMH03774
  WARNING 02: maximum depth increased for Node STMMH03775
  WARNING 02: maximum depth increased for Node STMMH03776
  WARNING 02: maximum depth increased for Node STMMH03777
  WARNING 02: maximum depth increased for Node STMMH03778
  WARNING 02: maximum depth increased for Node STMMH03779
  WARNING 02: maximum depth increased for Node STMMH03780
  WARNING 02: maximum depth increased for Node STMMH03781
  WARNING 02: maximum depth increased for Node STMMH03784
  WARNING 02: maximum depth increased for Node STMMH03785
  WARNING 02: maximum depth increased for Node STMMH03787
  WARNING 02: maximum depth increased for Node STMMH03792
  WARNING 02: maximum depth increased for Node STMMH03793
  WARNING 02: maximum depth increased for Node STMMH03794
  WARNING 02: maximum depth increased for Node STMMH03795
  WARNING 02: maximum depth increased for Node STMMH03798
  WARNING 02: maximum depth increased for Node STMMH03800
  WARNING 02: maximum depth increased for Node STMMH03803
  WARNING 02: maximum depth increased for Node STMMH03804
  WARNING 02: maximum depth increased for Node STMMH03817
  WARNING 02: maximum depth increased for Node STMMH03818
  WARNING 02: maximum depth increased for Node STMMH03821
  WARNING 02: maximum depth increased for Node STMMH03823
  WARNING 02: maximum depth increased for Node STMMH03824
  WARNING 02: maximum depth increased for Node STMMH03825
  WARNING 02: maximum depth increased for Node STMMH03828
  WARNING 02: maximum depth increased for Node STMMH03829
  WARNING 02: maximum depth increased for Node STMMH03830
  WARNING 02: maximum depth increased for Node STMMH03831
  WARNING 02: maximum depth increased for Node STMMH03832
  WARNING 02: maximum depth increased for Node STMMH03833
  WARNING 02: maximum depth increased for Node STMMH03834
  WARNING 02: maximum depth increased for Node STMMH03835
  WARNING 02: maximum depth increased for Node STMMH03837
  WARNING 02: maximum depth increased for Node STMMH03838
  WARNING 02: maximum depth increased for Node STMMH03839
  WARNING 02: maximum depth increased for Node STMMH03840
  WARNING 02: maximum depth increased for Node STMMH03849
  WARNING 02: maximum depth increased for Node STMMH03850
  WARNING 02: maximum depth increased for Node STMMH03851
  WARNING 02: maximum depth increased for Node STMMH03852
  WARNING 02: maximum depth increased for Node STMMH03854
  WARNING 02: maximum depth increased for Node STMMH03857
  WARNING 02: maximum depth increased for Node STMMH03858
  WARNING 02: maximum depth increased for Node STMMH03859
  WARNING 02: maximum depth increased for Node STMMH03860
  WARNING 02: maximum depth increased for Node STMMH03861
  WARNING 02: maximum depth increased for Node STMMH03864
  WARNING 02: maximum depth increased for Node STMMH03865
  WARNING 02: maximum depth increased for Node STMMH03866
  WARNING 02: maximum depth increased for Node STMMH03868
  WARNING 02: maximum depth increased for Node STMMH03869
  WARNING 02: maximum depth increased for Node STMMH03871
  WARNING 02: maximum depth increased for Node STMMH03872
  WARNING 02: maximum depth increased for Node STMMH03873
  WARNING 02: maximum depth increased for Node STMMH03874
  WARNING 02: maximum depth increased for Node STMMH03882
  WARNING 02: maximum depth increased for Node STMMH03883
  WARNING 02: maximum depth increased for Node STMMH03885
  WARNING 02: maximum depth increased for Node STMMH03886
  WARNING 02: maximum depth increased for Node STMMH03887
  WARNING 02: maximum depth increased for Node STMMH03891
  WARNING 02: maximum depth increased for Node STMMH03892
  WARNING 02: maximum depth increased for Node STMMH03893
  WARNING 02: maximum depth increased for Node STMMH03894
  WARNING 02: maximum depth increased for Node STMMH03897
  WARNING 02: maximum depth increased for Node STMMH03898
  WARNING 02: maximum depth increased for Node STMMH03899
  WARNING 02: maximum depth increased for Node STMMH03900
  WARNING 02: maximum depth increased for Node STMMH03901
  WARNING 02: maximum depth increased for Node STMMH03902
  WARNING 02: maximum depth increased for Node STMMH03903
  WARNING 02: maximum depth increased for Node STMMH03905
  WARNING 02: maximum depth increased for Node STMMH03906
  WARNING 02: maximum depth increased for Node STMMH03908
  WARNING 02: maximum depth increased for Node STMMH03909
  WARNING 02: maximum depth increased for Node STMMH03946
  WARNING 02: maximum depth increased for Node STMMH03947
  WARNING 02: maximum depth increased for Node STMMH03948
  WARNING 02: maximum depth increased for Node STMMH03949
  WARNING 02: maximum depth increased for Node STMMH03950
  WARNING 02: maximum depth increased for Node STMMH03951
  WARNING 02: maximum depth increased for Node STMMH03952
  WARNING 02: maximum depth increased for Node STMMH03955
  WARNING 02: maximum depth increased for Node STMMH03963
  WARNING 02: maximum depth increased for Node STMMH03964
  WARNING 02: maximum depth increased for Node STMMH03967
  WARNING 02: maximum depth increased for Node STMMH03968
  WARNING 02: maximum depth increased for Node STMMH03969
  WARNING 02: maximum depth increased for Node STMMH03971
  WARNING 02: maximum depth increased for Node STMMH03973
  WARNING 02: maximum depth increased for Node STMMH03974
  WARNING 02: maximum depth increased for Node STMMH03975
  WARNING 02: maximum depth increased for Node STMMH03976
  WARNING 02: maximum depth increased for Node STMMH03977
  WARNING 02: maximum depth increased for Node STMMH03983
  WARNING 02: maximum depth increased for Node STMMH03992
  WARNING 02: maximum depth increased for Node STMMH03993
  WARNING 02: maximum depth increased for Node STMMH04000
  WARNING 02: maximum depth increased for Node STMMH04001
  WARNING 02: maximum depth increased for Node STMMH04023
  WARNING 02: maximum depth increased for Node STMMH04024
  WARNING 02: maximum depth increased for Node STMMH04025
  WARNING 02: maximum depth increased for Node STMMH04026
  WARNING 02: maximum depth increased for Node STMMH04028
  WARNING 02: maximum depth increased for Node STMMH04029
  WARNING 02: maximum depth increased for Node STMMH04031
  WARNING 02: maximum depth increased for Node STMMH04032
  WARNING 02: maximum depth increased for Node STMMH04033
  WARNING 02: maximum depth increased for Node STMMH04040
  WARNING 02: maximum depth increased for Node STMMH04041
  WARNING 02: maximum depth increased for Node STMMH04042
  WARNING 02: maximum depth increased for Node STMMH04044
  WARNING 02: maximum depth increased for Node STMMH04046
  WARNING 02: maximum depth increased for Node STMMH04047
  WARNING 02: maximum depth increased for Node STMMH04048
  WARNING 02: maximum depth increased for Node STMMH04049
  WARNING 02: maximum depth increased for Node STMMH04050
  WARNING 02: maximum depth increased for Node STMMH04054
  WARNING 02: maximum depth increased for Node STMMH04055
  WARNING 02: maximum depth increased for Node STMMH04056
  WARNING 02: maximum depth increased for Node STMMH04057
  WARNING 02: maximum depth increased for Node STMMH04058
  WARNING 02: maximum depth increased for Node STMMH04059
  WARNING 02: maximum depth increased for Node STMMH04062
  WARNING 02: maximum depth increased for Node STMMH04063
  WARNING 02: maximum depth increased for Node STMMH04064
  WARNING 02: maximum depth increased for Node STMMH04065
  WARNING 02: maximum depth increased for Node STMMH04067
  WARNING 02: maximum depth increased for Node STMMH04069
  WARNING 02: maximum depth increased for Node STMMH04070
  WARNING 02: maximum depth increased for Node STMMH04075
  WARNING 02: maximum depth increased for Node STMMH04076
  WARNING 02: maximum depth increased for Node STMMH04080
  WARNING 02: maximum depth increased for Node STMMH04081
  WARNING 02: maximum depth increased for Node STMMH04082
  WARNING 02: maximum depth increased for Node STMMH04083
  WARNING 02: maximum depth increased for Node STMMH04085
  WARNING 02: maximum depth increased for Node STMMH04086
  WARNING 02: maximum depth increased for Node STMMH04087
  WARNING 02: maximum depth increased for Node STMMH04088
  WARNING 02: maximum depth increased for Node STMMH04089
  WARNING 02: maximum depth increased for Node STMMH04090
  WARNING 02: maximum depth increased for Node STMMH04094
  WARNING 02: maximum depth increased for Node STMMH04096
  WARNING 02: maximum depth increased for Node STMMH04097
  WARNING 02: maximum depth increased for Node STMMH04098
  WARNING 02: maximum depth increased for Node STMMH04100
  WARNING 02: maximum depth increased for Node STMMH04104
  WARNING 02: maximum depth increased for Node STMMH04105
  WARNING 02: maximum depth increased for Node STMMH04109
  WARNING 02: maximum depth increased for Node STMMH04110
  WARNING 02: maximum depth increased for Node STMMH04111
  WARNING 02: maximum depth increased for Node STMMH04112
  WARNING 02: maximum depth increased for Node STMMH04113
  WARNING 02: maximum depth increased for Node STMMH04114
  WARNING 02: maximum depth increased for Node STMMH04116
  WARNING 02: maximum depth increased for Node STMMH04117
  WARNING 02: maximum depth increased for Node STMMH04125
  WARNING 02: maximum depth increased for Node STMMH04126
  WARNING 02: maximum depth increased for Node STMMH04127
  WARNING 02: maximum depth increased for Node STMMH04131
  WARNING 02: maximum depth increased for Node STMMH04132
  WARNING 02: maximum depth increased for Node STMMH04134
  WARNING 02: maximum depth increased for Node STMMH04135
  WARNING 02: maximum depth increased for Node STMMH04136
  WARNING 02: maximum depth increased for Node STMMH04137
  WARNING 02: maximum depth increased for Node STMMH04138
  WARNING 02: maximum depth increased for Node STMMH04139
  WARNING 02: maximum depth increased for Node STMMH04140
  WARNING 02: maximum depth increased for Node STMMH04141
  WARNING 02: maximum depth increased for Node STMMH04142
  WARNING 02: maximum depth increased for Node STMMH04143
  WARNING 02: maximum depth increased for Node STMMH04144
  WARNING 02: maximum depth increased for Node STMMH04145
  WARNING 02: maximum depth increased for Node STMMH04146
  WARNING 02: maximum depth increased for Node STMMH04147
  WARNING 02: maximum depth increased for Node STMMH04150
  WARNING 02: maximum depth increased for Node STMMH04151
  WARNING 02: maximum depth increased for Node STMMH04152
  WARNING 02: maximum depth increased for Node STMMH04153
  WARNING 02: maximum depth increased for Node STMMH04154
  WARNING 02: maximum depth increased for Node STMMH04155
  WARNING 02: maximum depth increased for Node STMMH04156
  WARNING 02: maximum depth increased for Node STMMH04157
  WARNING 02: maximum depth increased for Node STMMH04159
  WARNING 02: maximum depth increased for Node STMMH04160
  WARNING 02: maximum depth increased for Node STMMH04161
  WARNING 02: maximum depth increased for Node STMMH04162
  WARNING 02: maximum depth increased for Node STMMH04163
  WARNING 02: maximum depth increased for Node STMMH04164
  WARNING 02: maximum depth increased for Node STMMH04165
  WARNING 02: maximum depth increased for Node STMMH04166
  WARNING 02: maximum depth increased for Node STMMH04167
  WARNING 02: maximum depth increased for Node STMMH04168
  WARNING 02: maximum depth increased for Node STMMH04169
  WARNING 02: maximum depth increased for Node STMMH04170
  WARNING 02: maximum depth increased for Node STMMH04171
  WARNING 02: maximum depth increased for Node STMMH04172
  WARNING 02: maximum depth increased for Node STMMH04175
  WARNING 02: maximum depth increased for Node STMMH04176
  WARNING 02: maximum depth increased for Node STMMH04177
  WARNING 02: maximum depth increased for Node STMMH04178
  WARNING 02: maximum depth increased for Node STMMH04179
  WARNING 02: maximum depth increased for Node STMMH04181
  WARNING 02: maximum depth increased for Node STMMH04182
  WARNING 02: maximum depth increased for Node STMMH04183
  WARNING 02: maximum depth increased for Node STMMH04184
  WARNING 02: maximum depth increased for Node STMMH04187
  WARNING 02: maximum depth increased for Node STMMH04188
  WARNING 02: maximum depth increased for Node STMMH04189
  WARNING 02: maximum depth increased for Node STMMH04190
  WARNING 02: maximum depth increased for Node STMMH04194
  WARNING 02: maximum depth increased for Node STMMH04195
  WARNING 02: maximum depth increased for Node STMMH04196
  WARNING 02: maximum depth increased for Node STMMH04197
  WARNING 02: maximum depth increased for Node STMMH04204
  WARNING 02: maximum depth increased for Node STMMH04205
  WARNING 02: maximum depth increased for Node STMMH04206
  WARNING 02: maximum depth increased for Node STMMH04207
  WARNING 02: maximum depth increased for Node STMMH04211
  WARNING 02: maximum depth increased for Node STMMH04213
  WARNING 02: maximum depth increased for Node STMMH04214
  WARNING 02: maximum depth increased for Node STMMH04215
  WARNING 02: maximum depth increased for Node STMMH04216
  WARNING 02: maximum depth increased for Node STMMH07302
  WARNING 02: maximum depth increased for Node STMMH07319
  WARNING 02: maximum depth increased for Node STMMH07320
  WARNING 02: maximum depth increased for Node STMMH07321
  WARNING 02: maximum depth increased for Node STMMH07322
  WARNING 02: maximum depth increased for Node STMMH07324
  WARNING 02: maximum depth increased for Node STMMH07325
  WARNING 02: maximum depth increased for Node STMMH07462
  WARNING 02: maximum depth increased for Node STMMH07586
  WARNING 02: maximum depth increased for Node STMMH07600
  WARNING 02: maximum depth increased for Node STMMH07602
  WARNING 02: maximum depth increased for Node STMMH07655
  
  *************
  Element Count
  *************
  Number of rain gages ...... 4
  Number of subcatchments ... 3817
  Number of nodes ........... 1424
  Number of links ........... 1919
  Number of pollutants ...... 0
  Number of land uses ....... 0
  
  
  ****************
  Raingage Summary
  ****************
                                                      Data       Recording
  Name                 Data Source                    Type       Interval 
  ------------------------------------------------------------------------
  DN25_low0.95         \\mainfile-van\Projects\Active\3000714_DNV_SWMM\Model\PCSWMM\AdditionalWork_Scen5_ExDSB\timeseries\DN25_SCALING_200yr_RG_file.dat
  DN25_low1.01         \\mainfile-van\Projects\Active\3000714_DNV_SWMM\Model\PCSWMM\AdditionalWork_Scen5_ExDSB\timeseries\DN25_SCALING_200yr_RG_file.dat
  DN25_mid1.07         \\mainfile-van\Projects\Active\3000714_DNV_SWMM\Model\PCSWMM\AdditionalWork_Scen5_ExDSB\timeseries\DN25_SCALING_200yr_RG_file.dat
  HRG_JAN01_24hr       \\mainfile-van\Projects\Active\3000714_DNV_SWMM\Model\PCSWMM\AdditionalWork_Scen5_ExDSB\timeseries\DN25_SCALING_200yr_RG_file.dat
  
  
  ********************
  Subcatchment Summary
  ********************
  Name                       Area     Width   %Imperv    %Slope Rain Gage            Outlet              
  -----------------------------------------------------------------------------------------------------------
  100-20018--12320           0.06     43.52     64.10   19.1510 HRG_JAN01_24hr       STMMH03646          
  10026-A--4850              0.08     38.83     70.00   11.0550 HRG_JAN01_24hr       STMMH03818          
  10026-B--4840              0.06     29.65     70.00    8.8710 HRG_JAN01_24hr       STMMH03821          
  10057-1--12571             0.08     38.54     70.00   18.2970 HRG_JAN01_24hr       STMMH03947          
  10057-2--12689             0.07     35.08     70.00   16.2530 HRG_JAN01_24hr       STMMH04001          
  10057-3--17616             0.08     35.37     70.00   13.1980 HRG_JAN01_24hr       STMMH04001          
  10057-4--12690             0.06     32.23     70.00   12.5880 HRG_JAN01_24hr       STMMH04001          
  10081-1--12061             0.08     34.77     70.00   21.0110 HRG_JAN01_24hr       STMMH03694          
  10089-1--12731             0.07     33.70     70.00   22.2580 HRG_JAN01_24hr       STMMH03154          
  10089-2--12730             0.07     32.86     70.00   21.3350 HRG_JAN01_24hr       STMMH03154          
  10126-1--20628             0.09     39.36     70.00   11.9170 HRG_JAN01_24hr       STMMH03876          
  10-1283-C--16947           0.06     35.92     70.00    6.8980 DN25_mid1.07         DUMMH03043          
  10-1283-D--20230           0.04     27.97     70.00    6.7580 HRG_JAN01_24hr       DUMMH03054          
  10188-1--8496              0.08     37.39     70.00   15.3020 HRG_JAN01_24hr       STMMH03453          
  10188-2--8484              0.08     37.79     70.00   14.3230 HRG_JAN01_24hr       STMMH03529          
  10188-3--8552              0.08     37.96     70.00   12.9780 HRG_JAN01_24hr       DUMMH02005          
  10188-4--8542              0.09     38.13     70.00   21.8220 HRG_JAN01_24hr       DUMMH02005          
  10188-5--13191             2.19    245.35     36.30   10.0830 HRG_JAN01_24hr       DUMMH02005          
  10188-5--17985             0.03     21.03     18.30   13.2330 HRG_JAN01_24hr       DUMMH331            
  10188-5--8000              0.08     26.23      0.60   14.2820 HRG_JAN01_24hr       STMMH03432          
  10244-A--20573             0.07     35.65     70.00    8.1630 HRG_JAN01_24hr       STMMH04046          
  10244-B--20600             0.07     35.81     70.00    7.7930 HRG_JAN01_24hr       STMMH04046          
  10257-A--18024             0.07     34.05     70.00   12.2150 HRG_JAN01_24hr       STMMH03557          
  10-2789-E--3369            0.08     36.65     70.00    7.8010 HRG_JAN01_24hr       STMMH03505          
  10-2855-1--20270           0.07     34.21     70.00    5.7290 HRG_JAN01_24hr       DUMMH235            
  10-2855-2--20612           0.04     19.72     78.40    8.5250 HRG_JAN01_24hr       STMMH03975          
  10-2855-3--20620           0.04     19.32     84.60    9.4060 HRG_JAN01_24hr       STMMH03975          
  10-2855-4AM--20245         0.05     27.25     73.20    9.0680 HRG_JAN01_24hr       DUMMH03054          
  10-2855-6AM--20248         0.06     30.05     70.00   12.4020 HRG_JAN01_24hr       DUMMH03070          
  10-2855-7--20269           0.04     21.82     70.00    4.8970 HRG_JAN01_24hr       DUMMH03070          
  10-2855-8--20225           0.04     22.37     70.00    3.8140 HRG_JAN01_24hr       DUMMH03070          
  10-2888-10--3382           0.04     19.98     70.00    8.7840 HRG_JAN01_24hr       STMMH03515          
  10-2888-11--3377           0.04     19.33     70.00    7.4160 HRG_JAN01_24hr       STMMH03515          
  10-2888-12--3388           0.05     26.06     70.00   21.4290 HRG_JAN01_24hr       STMMH03515          
  10-2888-13--3385           0.04     20.11     70.00   12.0270 HRG_JAN01_24hr       STMMH03515          
  10-2888-8--3383            0.04     24.41     70.00    8.5810 HRG_JAN01_24hr       STMMH03509          
  10-2888-9--3384            0.04     20.87     70.00    9.1850 HRG_JAN01_24hr       STMMH03515          
  10-2888-B--3373            0.08     37.24     70.00   10.5260 HRG_JAN01_24hr       STMMH03516          
  10-2888-C--3376            0.08     37.30     70.00    7.4600 HRG_JAN01_24hr       STMMH03516          
  10-2888-F--4912            0.09     40.34     70.00    5.5190 HRG_JAN01_24hr       STMMH07325          
  10300-20--4983             0.04     19.59     70.00    7.0970 HRG_JAN01_24hr       STMMH03904          
  10300-5--3457              0.04     19.41     76.20    8.7270 HRG_JAN01_24hr       STMMH03852          
  10300-852--2570            0.01      4.16      0.00   58.4630 HRG_JAN01_24hr       STMMH03909          
  10300-852--3299            0.01      3.30      0.00   70.9720 HRG_JAN01_24hr       STMMH03909          
  10300-852--3321            0.01      5.12      0.00   73.6430 HRG_JAN01_24hr       STMMH03848          
  10300-852--3337            0.04     23.20      0.00   58.6060 HRG_JAN01_24hr       STMMH03900          
  10300-852--3339            0.09     21.89      0.00   81.2840 HRG_JAN01_24hr       STMMH03902          
  10300-852--4794            0.04     15.93      0.00   77.1920 HRG_JAN01_24hr       STMMH04091          
  10300-852--4797            0.09     18.84     26.00   21.0620 HRG_JAN01_24hr       DUMMH02393          
  10302-1--12071             0.08     37.95     70.00   27.1420 HRG_JAN01_24hr       STMMH03692          
  10303-A--12464             0.02     20.76     70.00   30.5620 DN25_mid1.07         STMMH04166          
  10303-B--17196             0.02     21.30     70.00    9.8950 DN25_mid1.07         STMMH04167          
  10303-C--12463             0.02     17.28     70.00    7.5800 DN25_mid1.07         STMMH04167          
  10320-A--16801             0.06     32.23     70.00   10.2520 HRG_JAN01_24hr       DUMMH6455           
  10320-F--16881             0.06     30.03     70.00   10.6570 HRG_JAN01_24hr       DUMMH6246           
  10320-G--20262             0.05     26.35     70.00    9.7610 HRG_JAN01_24hr       DUMMH6246           
  10349-B--4992              0.08     38.81     70.00   13.4720 HRG_JAN01_24hr       STMMH03864          
  10349-C--14838             0.08     37.73     70.00   13.7570 HRG_JAN01_24hr       STMMH03864          
  10349-D--4994              0.10     43.57     70.00   10.1940 HRG_JAN01_24hr       STMMH03864          
  10349-E--14837             0.08     38.81     70.00    8.0120 HRG_JAN01_24hr       STMMH03865          
  10349-F--4991              0.09     39.13     70.00    4.7330 HRG_JAN01_24hr       STMMH03865          
  10349-G--4990              0.07     33.33     70.00    8.9200 HRG_JAN01_24hr       DUMMH2021           
  10349-H--4988              0.08     39.53     70.00    6.7650 HRG_JAN01_24hr       DUMMH02047          
  10349-PK--4859             0.16     66.20      0.00   13.1650 HRG_JAN01_24hr       STMMH00023          
  10350-A--16854             0.06     31.04     70.00   11.0200 HRG_JAN01_24hr       DUMMH6246           
  10350-B--16856             0.06     28.19     70.00   11.2870 HRG_JAN01_24hr       DUMMH6246           
  10350-C--16878             0.06     28.35     70.00   11.4390 HRG_JAN01_24hr       DUMMH6246           
  10350-D--16877             0.06     28.24     70.00   10.2880 HRG_JAN01_24hr       DUMMH094            
  10350-E--16781             0.06     28.38     70.00   12.1620 HRG_JAN01_24hr       DUMMH094            
  10-3581-27--4873           0.04     19.17     70.00    7.8340 HRG_JAN01_24hr       STMMH03536          
  10-3581-28--4823           0.04     19.59     70.00   12.1140 HRG_JAN01_24hr       STMMH03536          
  10-3581-31--4892           0.05     27.70     70.00   14.9960 HRG_JAN01_24hr       DUMMH6487           
  10-3581-32--4891           0.04     21.95     70.00    9.1020 HRG_JAN01_24hr       DUMMH6487           
  10-3581-33--4890           0.04     20.49     70.00   13.8210 HRG_JAN01_24hr       DUMMH6487           
  10360-95--20333            0.02      9.80     13.20   24.8490 HRG_JAN01_24hr       STMMH03639          
  10360-96--20332            0.05     31.00     64.10   17.1000 HRG_JAN01_24hr       DUMMH125            
  10360-97--20331            0.02     20.06     43.10   18.1840 HRG_JAN01_24hr       STMMH03648          
  10368-A--12026             0.07     33.84     70.00   15.1630 HRG_JAN01_24hr       STMMH03752          
  10-3828-13--3372           0.04     20.05     70.00    9.1160 HRG_JAN01_24hr       STMMH03516          
  10-3828-1--4877            0.03     18.36     70.00    7.9110 HRG_JAN01_24hr       DUMMH6487           
  10-3828-2--4876            0.04     19.80     70.00   13.9590 HRG_JAN01_24hr       DUMMH6487           
  10-3828-3--4808            0.04     19.52     70.00   12.3180 HRG_JAN01_24hr       DUMMH6487           
  10-3828-4--4878            0.05     25.39     70.00   12.6870 HRG_JAN01_24hr       DUMMH6487           
  10-3828-B--4894            0.09     39.85     70.00   11.2220 HRG_JAN01_24hr       STMMH03517          
  10-3828-C--4895            0.08     41.25     70.00   11.8020 HRG_JAN01_24hr       DUMMH6487           
  10-3828-D--4889            0.08     36.46     70.00   11.2690 HRG_JAN01_24hr       STMMH03517          
  10-3828-E--4896            0.07     32.59     70.00    8.0800 HRG_JAN01_24hr       STMMH03517          
  10394-A--4907              0.07     36.61     70.00   15.4350 HRG_JAN01_24hr       DUMMH02017          
  10401-2--12838             0.08     36.11     70.00   12.0750 HRG_JAN01_24hr       DUMMH6927           
  10401-3--17980             0.08     35.53     70.00   13.7370 HRG_JAN01_24hr       DUMMH6927           
  10401-4--17995             0.08     36.11     70.00   13.8320 HRG_JAN01_24hr       DUMMH6263           
  10411-A--17480             0.06     30.19     70.00   12.0060 HRG_JAN01_24hr       STMMH04069          
  10-4154-11--20261          0.05     21.67     70.00   13.1790 HRG_JAN01_24hr       STMMH03959          
  10-4154-A--16795           0.09     40.10     70.00   12.2370 HRG_JAN01_24hr       DUMMH067            
  10-4238-1AM--20268         0.08     39.72     70.00    5.9050 HRG_JAN01_24hr       DUMMH235            
  10-4238-3AM--20227         0.06     28.76     70.00    4.8970 HRG_JAN01_24hr       DUMMH235            
  10-4238-4AM--20181         0.09     40.50     70.00    9.3220 HRG_JAN01_24hr       DUMMH03054          
  10-4238-6AM--20182         0.06     26.67     70.00    9.2950 HRG_JAN01_24hr       DUMMH03054          
  10-4480-13--17926          0.04     22.42     70.00    9.7170 HRG_JAN01_24hr       STMMH03965          
  10-4480-14--20623          0.04     21.89     70.00   10.4320 HRG_JAN01_24hr       STMMH03965          
  10478-A--14798             0.05     31.86     70.00    7.5280 HRG_JAN01_24hr       STMMH03818          
  10478-A--14799             0.10     47.21     70.00    6.7210 HRG_JAN01_24hr       STMMH03829          
  10478-B--14802             0.03     24.63     70.00    3.5010 HRG_JAN01_24hr       STMMH03829          
  10478-B--4801              0.08     35.08     70.00    6.6460 HRG_JAN01_24hr       STMMH03829          
  10493-A--19955             0.07     33.83     70.00   10.3690 HRG_JAN01_24hr       STMMH03773          
  10493-B--19948             0.07     32.63     70.00   10.9420 HRG_JAN01_24hr       STMMH03869          
  105-1239--12126            0.12     52.32     70.00   31.2980 HRG_JAN01_24hr       DUMMH316            
  105-1239--12325            0.05     26.39     70.00   28.1310 HRG_JAN01_24hr       STMMH03639          
  10531-1--17038             0.07     38.72     70.00   21.2210 HRG_JAN01_24hr       STMMH03568          
  10531-2--17071             0.07     36.57     70.00   19.4770 HRG_JAN01_24hr       STMMH03568          
  10531-3--17089             0.07     33.42     70.00   14.4680 HRG_JAN01_24hr       STMMH03650          
  10531-4--17006             0.07     34.48     70.00   19.0440 HRG_JAN01_24hr       STMMH03649          
  10535-A--3424              0.07     33.53     70.00   24.6840 HRG_JAN01_24hr       STMMH03850          
  10535-B--3426              0.08     39.06     70.00   13.2510 HRG_JAN01_24hr       STMMH03850          
  10535-C--3425              0.08     41.46     70.00   10.1370 HRG_JAN01_24hr       STMMH03900          
  10536-1--14777             0.03     24.18     70.00    8.2830 HRG_JAN01_24hr       STMMH03829          
  10536-1--14806             0.09     38.91     70.00   10.1280 HRG_JAN01_24hr       STMMH03829          
  10536-2--14807             0.02     21.49     70.00    9.3620 HRG_JAN01_24hr       STMMH03829          
  10536-2--4849              0.07     27.84     70.00   13.4190 HRG_JAN01_24hr       STMMH03829          
  10545-2--18007             0.08     36.82     70.00   16.8760 HRG_JAN01_24hr       STMMH03557          
  10545-3--18028             0.07     34.89     70.00   15.0880 HRG_JAN01_24hr       STMMH03555          
  10545-4--18056             0.07     35.72     70.00   18.4390 HRG_JAN01_24hr       STMMH03555          
  10545-5--18008             0.07     35.46     70.00    8.8330 HRG_JAN01_24hr       STMMH03556          
  10597-B--17805             0.08     39.38     70.00   11.6300 HRG_JAN01_24hr       STMMH03899          
  10597-G--17950             0.08     35.29     70.00    9.0310 HRG_JAN01_24hr       STMMH03898          
  10610-B--3371              0.07     32.60     70.00   12.4010 HRG_JAN01_24hr       STMMH03506          
  10610-C--3370              0.07     31.83     70.00    7.8110 HRG_JAN01_24hr       STMMH03506          
  10610-D--3363              0.07     32.91     70.00   11.0930 HRG_JAN01_24hr       STMMH03507          
  10612-E--4923              0.08     34.29     70.00   26.5260 HRG_JAN01_24hr       STMMH03857          
  10612-H--4928              0.08     36.16     70.00   21.2050 HRG_JAN01_24hr       STMMH03857          
  10630-10--12444            0.07     36.70     70.00    7.4500 DN25_mid1.07         STMMH07302          
  10630-11--12447            0.10     45.48     70.00   11.9340 DN25_mid1.07         STMMH07302          
  10630-1--17372             0.07     33.44     70.00    9.9640 DN25_mid1.07         DUMMH5943           
  10630-13--7802             0.07     34.74     70.00   22.8240 DN25_mid1.07         STMMH07308          
  10630-14--12434            0.07     32.64     70.00   23.9660 DN25_mid1.07         STMMH07308          
  10630-15--12441            0.07     33.73     70.00   22.9190 DN25_mid1.07         STMMH07308          
  10630-2--17367             0.07     33.63     70.00    6.4460 DN25_mid1.07         DUMMH5943           
  10630-29--7798             0.10     45.23     70.00   17.5230 DN25_mid1.07         STMMH07308          
  10630-30--7801             0.11     47.22     70.00    5.7730 DN25_mid1.07         STMMH07308          
  10630-3--17366             0.07     33.35     70.00    9.3900 DN25_mid1.07         STMMH02636          
  10630-31--7807             0.10     42.23     70.00   15.6650 DN25_mid1.07         STMMH02638          
  10630-32--7841             0.09     35.99     70.00    7.3750 DN25_mid1.07         STMMH02639          
  10630-4--17368             0.08     34.02     70.00    5.3040 DN25_mid1.07         STMMH02636          
  10630-42--12517            0.07     38.73     70.00   11.2290 DN25_mid1.07         DUMMH194            
  10630-43--12516            0.07     38.69     70.00    7.1790 DN25_mid1.07         DUMMH194            
  10630-44--7813             0.09     45.70     70.00   13.4510 DN25_mid1.07         STMMH02637          
  10630-45--7818             0.10     45.09     70.00   11.0150 DN25_mid1.07         STMMH02637          
  10630-46--2549             0.07     36.66     70.00    4.7680 DN25_mid1.07         STMMH02637          
  10630-47--7817             0.10     45.16     70.00    6.3960 DN25_mid1.07         STMMH02639          
  10630-48--2547             0.08     39.36     70.00    6.1140 DN25_mid1.07         STMMH02666          
  10630-49--7826             0.15     54.23     70.00    9.5600 DN25_mid1.07         STMMH02666          
  10630-50--7824             0.12     48.52     70.00   11.9920 DN25_mid1.07         STMMH02666          
  10630-5--12515             0.09     39.60     70.00    7.4590 DN25_mid1.07         STMMH02636          
  10630-51--7789             0.12     50.69     70.00   17.9270 DN25_mid1.07         STMMH02666          
  10630-52--7827             0.12     49.87     70.00    8.4390 DN25_mid1.07         STMMH02666          
  10630-53--7828             0.07     40.69     70.00    6.5530 DN25_mid1.07         STMMH02666          
  10630-54--7816             0.07     37.77     70.00    4.3610 DN25_mid1.07         STMMH02639          
  10630-55--7815             0.03     25.18     70.00    4.2430 DN25_mid1.07         STMMH02639          
  10630-56--7797             0.03     24.16     70.00    6.1980 DN25_mid1.07         STMMH02673          
  10630-58--12431            0.02     17.92     70.00    4.7830 DN25_mid1.07         STMMH02673          
  10630-59--7825             0.02     17.02     70.00   12.7900 DN25_mid1.07         STMMH02671          
  10630-60--7806             0.04     29.52     70.00    4.5890 DN25_mid1.07         STMMH02671          
  10630-61--12432            0.03     24.70     70.00    4.7070 DN25_mid1.07         STMMH02671          
  10630-6--12442             0.08     37.07     70.00    8.5780 DN25_mid1.07         STMMH02638          
  10630-7--12448             0.07     33.12     70.00   13.2280 DN25_mid1.07         STMMH02638          
  10630-8--12450             0.07     33.44     70.00    8.9280 DN25_mid1.07         STMMH07302          
  10630-9--17207             0.07     33.73     70.00   12.1090 DN25_mid1.07         STMMH07302          
  10680-A--14930             0.07     36.33     70.00   31.8540 HRG_JAN01_24hr       STMMH03671          
  10706-10--17977            0.11     45.63     70.00    6.3650 HRG_JAN01_24hr       STMMH03429          
  10706-15--18054            0.08     37.72     70.00   29.1770 HRG_JAN01_24hr       STMMH03417          
  10706-17--17963            0.09     39.97     70.00   12.0090 HRG_JAN01_24hr       DUMMH6928           
  10706-22--18074            0.07     34.74     70.00   21.3090 HRG_JAN01_24hr       STMMH03576          
  10706-24--17976            0.07     33.65     70.00   19.9850 HRG_JAN01_24hr       STMMH03564          
  10706-26--18003            0.19     60.25     70.00   19.6500 HRG_JAN01_24hr       STMMH03578          
  10706-27--17023            0.10     48.24     70.00   20.7870 HRG_JAN01_24hr       DUMMH342            
  10706-27--17024            0.00      5.22     70.00   47.6670 HRG_JAN01_24hr       DUMMH342            
  10706-28--20314            0.12     56.17     70.00   18.3130 HRG_JAN01_24hr       STMMH03400          
  10706-29--12308            0.07     34.00     70.00   20.6910 HRG_JAN01_24hr       STMMH03376          
  10706-30--12811            0.08     36.67     70.00   24.0520 HRG_JAN01_24hr       STMMH03415          
  10706-31--18075            0.10     41.71     70.00   22.9080 HRG_JAN01_24hr       STMMH03408          
  10706-3--12237             0.07     33.05     70.00   23.0660 HRG_JAN01_24hr       STMMH03376          
  10706-32--18085            0.09     40.04     70.00   21.8890 HRG_JAN01_24hr       STMMH03408          
  10706-4--12348             0.17     60.64     70.00   19.2800 HRG_JAN01_24hr       STMMH03397          
  10706-8--13190             0.08     38.32     70.00   18.1800 HRG_JAN01_24hr       STMMH03419          
  10706-9--13189             0.09     39.55     70.00    9.0710 HRG_JAN01_24hr       STMMH03419          
  10706-A--18026             0.08     35.91     70.00   17.9300 HRG_JAN01_24hr       STMMH03578          
  10808-A--17213             0.09     39.78     70.00   21.4620 DN25_mid1.07         STMMH02628          
  10808-B--12443             0.08     39.83     70.00   22.3300 DN25_mid1.07         STMMH02628          
  10808-C--12460             0.08     39.80     70.00   23.4410 DN25_mid1.07         STMMH02631          
  10808-D--12385             0.08     39.35     70.00   14.0660 DN25_mid1.07         STMMH02631          
  10817-1--12461             0.08     34.31     70.00   13.0700 DN25_mid1.07         STMMH02631          
  108-2882-10--12356         0.05     27.18     70.00   18.9830 HRG_JAN01_24hr       STMMH03606          
  108-2882-11--12362         0.05     26.93     70.00   20.1350 HRG_JAN01_24hr       STMMH03607          
  108-2882-1--12357          0.05     28.28     70.00   23.5220 HRG_JAN01_24hr       STMMH03607          
  108-2882-12--12355         0.05     27.01     70.00   18.4360 HRG_JAN01_24hr       STMMH03607          
  108-2882-2--12354          0.05     27.71     70.00   20.7300 HRG_JAN01_24hr       STMMH03606          
  108-2882-3--12163          0.06     31.24     70.00   24.7980 HRG_JAN01_24hr       STMMH03606          
  10845-D--3375              0.07     30.52     70.00    7.9870 HRG_JAN01_24hr       STMMH03515          
  10845-E--3374              0.06     32.41     70.00    8.2870 HRG_JAN01_24hr       STMMH03515          
  10858-1--17129             0.08     37.89     70.00   13.8870 HRG_JAN01_24hr       STMMH03650          
  10858-2--17151             0.08     37.52     70.00   15.8820 HRG_JAN01_24hr       STMMH03650          
  10858-3--17103             0.08     41.59     70.00   17.5450 HRG_JAN01_24hr       STMMH03569          
  10858-4--17074             0.09     42.00     70.00   15.7430 HRG_JAN01_24hr       STMMH03569          
  10864-3--17258             0.00      4.00     70.00    4.8140 DN25_mid1.07         DUMMH6673           
  10864-5--12525             0.07     35.97     70.00    4.1380 DN25_mid1.07         DUMMH194            
  10864-6--12526             0.08     35.09     70.00    6.2360 DN25_mid1.07         STMMH02660          
  10864-7--17370             0.08     39.53     70.00    8.3670 DN25_mid1.07         STMMH02660          
  10864-8--17262             0.08     37.98     70.00    6.2050 DN25_mid1.07         STMMH07306          
  10864-9--17263             0.10     45.03     70.00   18.9900 DN25_mid1.07         DUMMH5943           
  10-9161-1--20295           0.09     38.20     70.00   10.4740 HRG_JAN01_24hr       STMMH03955          
  10-9161-2--20292           0.04     18.52     70.00   10.8180 HRG_JAN01_24hr       DUMMH260            
  10-9161-2--20306           0.05     23.85     70.00   14.6230 HRG_JAN01_24hr       DUMMH260            
  10928-100--12470           0.01     10.58     70.00    7.1010 DN25_mid1.07         STMMH02670          
  10939-A--8531              0.08     42.75     70.00    6.2890 HRG_JAN01_24hr       DUMMH02010          
  10939-B--8532              0.08     41.72     70.00    5.9210 HRG_JAN01_24hr       DUMMH02010          
  10-9776-B--20231           0.01     14.28     70.00    6.5100 DN25_mid1.07         DUMMH03043          
  10-9776-B--20237           0.08     37.15     70.00    5.6890 DN25_mid1.07         STMMH04025          
  10-9787-A--4888            0.07     33.75     70.00   10.2400 HRG_JAN01_24hr       STMMH03517          
  10-9787-B--4872            0.09     38.70     70.00   11.0460 HRG_JAN01_24hr       STMMH03517          
  10-9787-E--3362            0.08     36.12     70.00   10.6030 HRG_JAN01_24hr       STMMH03507          
  10995-191--12529           0.11     48.53     70.00   10.1050 DN25_mid1.07         STMMH02672          
  10995-192--12465           0.12     48.69     70.00   12.0990 DN25_mid1.07         DUMMH188            
  10995-193--12513           0.07     32.97     70.00    4.2240 DN25_mid1.07         STMMH02673          
  10995-194--7846            0.07     36.17     70.00    7.7100 DN25_mid1.07         STMMH02673          
  10995-195--17204           0.07     36.17     70.00    4.8220 DN25_mid1.07         STMMH02673          
  10995-196--17229           0.08     38.37     70.00    7.6230 DN25_mid1.07         STMMH02671          
  10995-197--17230           0.09     38.98     70.00    5.0130 DN25_mid1.07         STMMH02671          
  10995-198--12466           0.08     33.98     70.00    7.0860 DN25_mid1.07         STMMH02670          
  10995-199--12467           0.07     33.46     70.00    8.3300 DN25_mid1.07         STMMH02670          
  10-9972-1--3387            0.08     35.69     70.00    7.2150 HRG_JAN01_24hr       STMMH03511          
  10-9972-2--4918            0.08     36.02     70.00    7.1180 HRG_JAN01_24hr       STMMH07325          
  109-9867-A--12177          0.05     23.24     70.00   16.9550 HRG_JAN01_24hr       DUMMH040            
  109-9867-A--16981          0.05     23.24     70.00   17.3240 HRG_JAN01_24hr       STMMH03601          
  109-9867-B--12359          0.07     34.96     70.00   17.0210 HRG_JAN01_24hr       STMMH03606          
  11037-D--8558              0.06     31.29     70.00    9.3550 HRG_JAN01_24hr       STMMH03446          
  11037-E--8557              0.06     31.24     70.00   11.9450 HRG_JAN01_24hr       STMMH03452          
  110-9526-A--16979          0.09     43.31     70.00   19.7050 HRG_JAN01_24hr       STMMH03601          
  110-9526-B--17072          0.07     33.75     70.00   18.0670 HRG_JAN01_24hr       STMMH03649          
  111-4258-22--17010         0.07     38.63     70.00   25.1540 HRG_JAN01_24hr       DUMMH5754           
  11-1511-1--16966           0.06     28.28     70.00    6.6570 HRG_JAN01_24hr       STMMH03983          
  11-1511-1RD--16967         0.00      5.52      0.00   17.1870 HRG_JAN01_24hr       STMMH03983          
  11-1511-3--16918           0.00      6.20      0.00   10.8230 HRG_JAN01_24hr       STMMH03983          
  11-1511-3AM--16924         0.06     28.28     70.00    5.8080 HRG_JAN01_24hr       STMMH03983          
  11-1511-4--16917           0.00      6.26      0.00   14.3420 HRG_JAN01_24hr       STMMH03983          
  11-1511-4AM--16969         0.06     28.19     70.00    6.9800 HRG_JAN01_24hr       STMMH03983          
  11-1511-6--20161           0.00      6.25      0.00    3.7010 HRG_JAN01_24hr       STMMH03976          
  11-1511-6AM--16970         0.06     28.01     70.00    6.4450 HRG_JAN01_24hr       STMMH03976          
  11158-B--18006             0.08     36.37     70.00   10.9850 HRG_JAN01_24hr       STMMH03554          
  11158-C--17996             0.07     34.62     70.00    7.5930 HRG_JAN01_24hr       STMMH03555          
  11158-D--18009             0.07     35.24     70.00   11.8480 HRG_JAN01_24hr       STMMH03555          
  11158-E--18019             0.07     34.61     70.00   11.1870 HRG_JAN01_24hr       STMMH03556          
  11172-A--19932             0.07     30.55     70.00   21.0230 HRG_JAN01_24hr       DUMMH290            
  11200-1--12377             0.07     35.25     70.00    5.2280 HRG_JAN01_24hr       DUMMH02049          
  11232-A--14982             0.08     39.55     70.00   18.4330 HRG_JAN01_24hr       STMMH07643          
  112888-1--18016            0.10     41.65     70.00   11.6180 HRG_JAN01_24hr       DUMMH329            
  11-2888-20--4910           0.05     25.70     70.00    6.2150 HRG_JAN01_24hr       STMMH07325          
  11-2888-21--4911           0.04     21.29     70.00    6.5480 HRG_JAN01_24hr       STMMH07325          
  11-2888-22--4913           0.04     20.51     83.50    7.0530 HRG_JAN01_24hr       STMMH07325          
  11-2888-23--14823          0.04     19.66     70.00    6.8020 HRG_JAN01_24hr       STMMH07325          
  11-2888-24--4905           0.06     29.37     70.00    7.0760 HRG_JAN01_24hr       STMMH03824          
  11-2888-27--4903           0.06     43.98     70.00    8.7980 HRG_JAN01_24hr       STMMH03517          
  11-2888-29--4904           0.06     42.24     70.00   10.6400 HRG_JAN01_24hr       STMMH03517          
  11-2888-30--14819          0.04     30.77     70.00    8.2990 HRG_JAN01_24hr       STMMH07325          
  11-2888-31--4893           0.04     30.64     70.00    8.8180 HRG_JAN01_24hr       STMMH07325          
  11-2888-G--4906            0.09     50.74     70.00    8.0890 HRG_JAN01_24hr       STMMH07325          
  11288-A--18048             0.10     40.47     70.00   14.6850 HRG_JAN01_24hr       DUMMH377            
  11312-B--17176             0.09     43.35     70.00   17.1710 HRG_JAN01_24hr       STMMH04138          
  11368-239--12433           0.04     29.02     70.00   26.7450 DN25_mid1.07         STMMH07308          
  11368-240--7803            0.07     40.77     70.00   20.3940 DN25_mid1.07         STMMH07308          
  11368-241--12454           0.08     43.41     70.00   25.2140 DN25_mid1.07         STMMH02628          
  11368-242--7799            0.04     30.97     70.00   11.3810 DN25_mid1.07         STMMH02628          
  11368-243--12468           0.03     26.65     70.00    9.8510 DN25_mid1.07         STMMH02631          
  11368-244--21307           0.02     16.74     70.00    9.4160 DN25_mid1.07         STMMH02631          
  11-3828-17--4885           0.04     31.86     70.00    8.9570 HRG_JAN01_24hr       STMMH03517          
  11-3828-18--4880           0.04     31.87     70.00    8.7880 HRG_JAN01_24hr       STMMH03517          
  11-3828-19--14818          0.04     32.20     70.00    8.4390 HRG_JAN01_24hr       STMMH03517          
  11-3828-27--4874           0.04     19.43     70.00    9.7750 HRG_JAN01_24hr       DUMMH02016          
  11-3828-28--4879           0.04     19.28     70.00   10.3350 HRG_JAN01_24hr       DUMMH02016          
  11-3828-35--4917           0.04     19.52     70.00    8.5610 HRG_JAN01_24hr       STMMH03824          
  11-3828-36--4916           0.04     19.52     70.00    9.0070 HRG_JAN01_24hr       STMMH03824          
  11-3845-10--12097          0.06     29.08     70.00   12.1950 HRG_JAN01_24hr       STMMH03752          
  11-3845-11--12056          0.06     28.90     70.00   11.7290 HRG_JAN01_24hr       STMMH03752          
  11-3845-1--12080           0.06     29.22     70.00   17.7950 HRG_JAN01_24hr       STMMH03750          
  11-3845-12--12082          0.06     29.21     70.00   16.0030 HRG_JAN01_24hr       STMMH03752          
  11-3845-13--12028          0.06     29.34     70.00   11.7320 HRG_JAN01_24hr       STMMH03752          
  11-3845-14--12021          0.06     29.37     70.00   11.3970 HRG_JAN01_24hr       STMMH03753          
  11-3845-15--7688           0.06     30.02     70.00    9.0230 HRG_JAN01_24hr       STMMH03753          
  11-3845-16--12009          0.06     29.54     70.00   13.2110 HRG_JAN01_24hr       STMMH03753          
  11-3845-17--12020          0.06     29.55     70.00   14.8480 HRG_JAN01_24hr       STMMH03753          
  11-3845-18--12019          0.06     30.42     70.00   16.8210 HRG_JAN01_24hr       STMMH03753          
  11-3845-19--12101          0.06     30.73     70.00   15.9590 HRG_JAN01_24hr       STMMH03753          
  11-3845-20--12022          0.06     30.27     70.00   15.2080 HRG_JAN01_24hr       STMMH03753          
  11-3845-2--12088           0.07     27.94     70.00   16.8330 HRG_JAN01_24hr       STMMH03750          
  11-3845-23--12004          0.06     34.53     70.00   14.9820 HRG_JAN01_24hr       STMMH03754          
  11-3845-3--16745           0.07     28.02     70.00   16.9130 HRG_JAN01_24hr       STMMH03751          
  11-3845-6--12086           0.07     28.70     70.00   12.5580 HRG_JAN01_24hr       STMMH03751          
  11-3845-7--12048           0.03     14.51     70.00   11.2510 HRG_JAN01_24hr       STMMH03752          
  11-3845-7--12090           0.03     15.21     70.00   13.4480 HRG_JAN01_24hr       STMMH03752          
  11-3845-8--12083           0.07     29.48     70.00   12.3840 HRG_JAN01_24hr       STMMH03752          
  11-3845-9--12096           0.06     28.71     70.00   12.9130 HRG_JAN01_24hr       STMMH03752          
  11386-1--12081             0.06     35.50     70.00   30.4770 HRG_JAN01_24hr       STMMH03692          
  11386-1--17651             0.06     33.37     70.00   27.9150 HRG_JAN01_24hr       STMMH03738          
  11402-A--18087             0.12     42.12     70.00   20.9450 HRG_JAN01_24hr       STMMH03406          
  11402-B--18089             0.09     40.45     70.00   23.8470 HRG_JAN01_24hr       STMMH03408          
  11402-C--18092             0.10     39.92     70.00   21.8140 HRG_JAN01_24hr       STMMH03409          
  11402-D--18082             0.10     39.96     70.00   20.8750 HRG_JAN01_24hr       STMMH03409          
  11426-1--12008             0.06     29.27     70.00   10.3110 HRG_JAN01_24hr       STMMH03801          
  11426-2--12012             0.06     29.22     70.00   14.0090 HRG_JAN01_24hr       STMMH03801          
  11426-3--7705              0.06     29.25     70.00   13.4670 HRG_JAN01_24hr       STMMH03801          
  11431-A--7689              0.08     38.45     70.00   16.2960 HRG_JAN01_24hr       STMMH03796          
  11434-1--20520             0.07     37.00     70.00    8.2220 DN25_mid1.07         STMMH04192          
  11438-1--17770             0.07     33.30     70.00    6.7120 DN25_mid1.07         STMMH04134          
  11438-2--17763             0.07     37.57     70.00    5.7560 DN25_mid1.07         STMMH04134          
  114-4258-16--12173         0.03     24.12     70.00   12.0050 HRG_JAN01_24hr       DUMMH317            
  114-4258-17--12339         0.04     24.08     70.00    8.8380 HRG_JAN01_24hr       STMMH03808          
  114-4258-8--17167          0.04     19.11     70.00   14.0370 HRG_JAN01_24hr       STMMH03808          
  114-4258-9--17106          0.04     19.70     70.00   13.8980 HRG_JAN01_24hr       STMMH03662          
  114-4258-B--17108          0.07     35.62     70.00   13.0340 HRG_JAN01_24hr       STMMH03808          
  11452-A--17979             0.10     35.16     70.00    7.8080 HRG_JAN01_24hr       STMMH03430          
  11452-B--12802             0.08     30.61     70.00    7.7890 HRG_JAN01_24hr       STMMH03430          
  11452-C--17991             0.08     32.65     70.00   12.0610 HRG_JAN01_24hr       STMMH03430          
  11452-D--12803             0.09     35.93     70.00    9.3310 HRG_JAN01_24hr       STMMH03430          
  11452-F--17954             0.09     33.25     70.00    9.6080 HRG_JAN01_24hr       STMMH03431          
  11452-G--17964             0.09     32.88     70.00   12.1700 HRG_JAN01_24hr       STMMH03431          
  11452-J--17961             0.10     42.78     70.00    9.6090 HRG_JAN01_24hr       DUMMH6060           
  11452-K--17960             0.12     45.94     70.00   14.4180 HRG_JAN01_24hr       STMMH03432          
  11452-L--17959             0.12     46.54     70.00   10.9920 HRG_JAN01_24hr       STMMH03432          
  11461-1--17078             0.07     36.59     70.00   15.1030 HRG_JAN01_24hr       STMMH03595          
  11461-1A--12340            0.07     37.51     70.00   16.2270 HRG_JAN01_24hr       STMMH03594          
  11461-2--17077             0.08     39.47     70.00   20.7750 HRG_JAN01_24hr       STMMH03594          
  11461-3--17076             0.08     37.32     70.00   16.1470 HRG_JAN01_24hr       STMMH03583          
  11461-4--17049             0.08     38.40     70.00   17.6640 HRG_JAN01_24hr       STMMH03596          
  11501-A--17411             0.07     36.50     70.00    4.3880 DN25_mid1.07         STMMH02617          
  11501-B--17403             0.07     33.97     70.00    4.6870 DN25_mid1.07         DUMMH191            
  11515-B--17032             0.10     41.93     70.00   15.1930 HRG_JAN01_24hr       STMMH03591          
  11535-A--17136             0.08     38.68     70.00   19.4440 HRG_JAN01_24hr       STMMH03586          
  11535-B--17133             0.08     38.24     70.00   15.9200 HRG_JAN01_24hr       DUMMH319            
  11535-C--17110             0.08     38.58     70.00   17.0300 HRG_JAN01_24hr       STMMH03569          
  11535-D--17143             0.08     37.96     70.00   22.6380 HRG_JAN01_24hr       STMMH03569          
  11599-5--12561             0.30     69.78      0.20   20.9990 HRG_JAN01_24hr       STMMH03947          
  11608-C--16983             0.10     42.41     70.00   22.5220 HRG_JAN01_24hr       STMMH03601          
  11608-D--17007             0.08     36.67     70.00   19.1210 HRG_JAN01_24hr       STMMH03568          
  11616-B--20247             0.07     35.12     70.00    7.5710 HRG_JAN01_24hr       DUMMH6454           
  11622-C--20599             0.06     30.24     70.00    8.2400 DN25_mid1.07         STMMH04050          
  11622-D--20563             0.06     30.39     70.00   10.4990 HRG_JAN01_24hr       DUMMH064            
  11627-4--17424             0.07     35.98     70.00    6.9030 DN25_mid1.07         STMMH04158          
  11627-5--17357             0.08     35.56     70.00    6.6920 DN25_mid1.07         STMMH04160          
  11627-6--17412             0.07     34.65     70.00    8.8500 DN25_mid1.07         STMMH04153          
  11627-7--17416             0.07     35.79     70.00    8.1920 DN25_mid1.07         STMMH04153          
  116-4258-1--20310          0.07     36.28     70.00   25.9590 HRG_JAN01_24hr       DUMMH5848           
  116-4258-18--16990         0.03     22.97     70.00   10.2880 HRG_JAN01_24hr       STMMH03808          
  116-4258-2--20311          0.03     18.91     70.00   22.2730 HRG_JAN01_24hr       DUMMH5848           
  116-4258-3--20316          0.04     19.43     70.00   12.9500 HRG_JAN01_24hr       STMMH03658          
  116-4258-C--17109          0.07     34.85     70.00   17.6660 HRG_JAN01_24hr       STMMH03658          
  11649-I--16876             0.06     28.76     70.00    8.1100 HRG_JAN01_24hr       DUMMH094            
  11719-18--18077            0.09     35.49     70.00   11.8710 HRG_JAN01_24hr       STMMH03554          
  11719-B--18057             0.09     35.92     70.00   11.5090 HRG_JAN01_24hr       STMMH03554          
  11729-B--7998              0.13     53.58     70.00   19.2690 HRG_JAN01_24hr       DUMMH6061           
  11791-A--19873             0.06     29.21     70.00   18.5770 HRG_JAN01_24hr       STMMH03643          
  11791-B--14878             0.06     29.24     70.00   17.6230 HRG_JAN01_24hr       STMMH03643          
  11791-C--14876             0.06     30.30     70.00   17.9750 HRG_JAN01_24hr       STMMH03644          
  11791-D--14811             0.06     29.29     70.00   14.6290 HRG_JAN01_24hr       STMMH03644          
  11791-E--14892             0.06     30.11     70.00   19.9270 HRG_JAN01_24hr       DUMMH6482           
  11814-A--20644             0.09     39.36     70.00   20.3100 HRG_JAN01_24hr       STMMH03589          
  11814-B--20645             0.10     38.96     70.00   18.6340 HRG_JAN01_24hr       STMMH03589          
  11814-C--17139             0.00      7.16     70.00   46.4980 HRG_JAN01_24hr       DUMMH5846           
  11814-C--20334             0.09     40.32     70.00   22.3860 HRG_JAN01_24hr       STMMH03589          
  11814-D--20637             0.09     38.09     70.00   17.0870 HRG_JAN01_24hr       STMMH03588          
  11814-D--20651             0.01      2.33     70.00   26.9440 HRG_JAN01_24hr       STMMH03588          
  11823-A--16803             0.11     50.06     70.00   17.3350 HRG_JAN01_24hr       DUMMH6102           
  11891-10--20357            0.07     38.44     70.00   18.3640 HRG_JAN01_24hr       STMMH04076          
  11891-1--17456             0.08     36.92     70.00    8.5960 HRG_JAN01_24hr       STMMH04076          
  11891-2--17461             0.07     33.53     70.00    8.7420 HRG_JAN01_24hr       STMMH04075          
  11891-3--17310             0.07     33.48     70.00   13.9190 HRG_JAN01_24hr       STMMH04075          
  11891-4--17342             0.08     36.59     70.00   22.3130 HRG_JAN01_24hr       STMMH04075          
  11891-5--17341             0.12     45.76     70.00   21.9330 HRG_JAN01_24hr       STMMH04075          
  11891-6--17453             0.08     38.68     70.00   22.5990 HRG_JAN01_24hr       STMMH04076          
  11891-7--17458             0.09     41.95     70.00   24.0070 HRG_JAN01_24hr       DUMMH228            
  11891-8--20392             0.07     34.43     70.00   12.3120 HRG_JAN01_24hr       STMMH04067          
  11891-9--20397             0.04     18.65     70.00   12.5250 HRG_JAN01_24hr       STMMH04067          
  11891-9--20398             0.04     18.55     70.00   22.6560 HRG_JAN01_24hr       STMMH04067          
  11892-1--20405             0.08     39.98     70.00   14.2040 HRG_JAN01_24hr       DUMMH231            
  11892-2--20347             0.08     39.10     70.00   14.3420 HRG_JAN01_24hr       DUMMH231            
  11916-A--14916             0.08     36.38     70.00   25.3930 HRG_JAN01_24hr       STMMH03676          
  11-9727-A--14824           0.06     28.22     70.00   10.0620 HRG_JAN01_24hr       STMMH03824          
  11-9727-B--4898            0.06     28.33     70.00    6.7100 HRG_JAN01_24hr       STMMH03824          
  11-9727-C--4908            0.06     28.65     70.00    7.7220 HRG_JAN01_24hr       STMMH03824          
[...]
  STMSUR00543_9    TRAPEZOIDAL          5.00    75.00     2.74    25.00        1   661.01
  STMSUR00544      TRAPEZOIDAL          5.00    75.00     2.74    25.00        1   791.26
  STMSUR00875      TRAPEZOIDAL          1.50     5.63     0.75     6.75        1     9.63
  STMSUR00876      TRAPEZOIDAL          1.50     5.63     0.75     6.75        1    25.57
  STMSUR00877      TRAPEZOIDAL          1.50     5.63     0.75     6.75        1    29.71
  STMSUR00878      TRAPEZOIDAL          1.50     5.63     0.75     6.75        1    34.59
  STMSUR00879      TRAPEZOIDAL          1.50     5.63     0.75     6.75        1     4.51
  STMSUR00880      TRAPEZOIDAL          1.50     5.63     0.75     6.75        1    21.00
  STMSUR00881      TRAPEZOIDAL          1.50     5.63     0.75     6.75        1    15.34
  STMSUR00883      TRAPEZOIDAL          1.50     5.63     0.75     6.75        1    18.60
  STMSUR00884      TRAPEZOIDAL          1.50     5.63     0.75     6.75        1    22.75
  STMSUR00886      TRAPEZOIDAL          1.50     5.63     0.75     6.75        1    16.85
  STMSUR01070      TRAPEZOIDAL          3.00    20.28     1.43    12.76        1   207.31
  STMSUR01071_1    TRAPEZOIDAL          1.50     5.64     0.76     6.76        1    40.42
  STMSUR01071_2    TRAPEZOIDAL          1.50     5.64     0.76     6.76        1    38.98
  STMSUR01072_1    TRAPEZOIDAL          1.50     5.64     0.76     6.76        1    38.12
  STMSUR01072_2    TRAPEZOIDAL          1.50     5.64     0.76     6.76        1    31.18
  STMSUR01072_4    TRAPEZOIDAL          1.50     5.64     0.76     6.76        1    38.35
  STMSUR01072_5    TRAPEZOIDAL          1.50     5.64     0.76     6.76        1    30.00
  STMSUR01073_1    TRAPEZOIDAL          1.50     5.64     0.76     6.76        1    40.10
  STMSUR01073_2    TRAPEZOIDAL          1.50     5.64     0.76     6.76        1    30.56
  STMSUR01074_1    TRAPEZOIDAL          1.50     5.64     0.76     6.76        1    46.08
  STMSUR01074_2    TRAPEZOIDAL          1.50     5.64     0.76     6.76        1    40.24
  STMSUR01077      TRAPEZOIDAL          1.50     5.64     0.76     6.76        1    47.06
  STMSUR01079      TRAPEZOIDAL          1.50     5.64     0.76     6.76        1    69.55
  STMSUR01081      TRAPEZOIDAL          1.50     5.64     0.76     6.76        1    12.77
  STMSUR01082      TRAPEZOIDAL          3.00    20.28     1.43    12.76        1   122.48
  STMSUR01085_2    TRAPEZOIDAL          3.00    20.28     1.43    12.76        1   212.11
  STMSUR01085_3    TRAPEZOIDAL          1.50     5.64     0.76     6.76        1    42.93
  STMSUR01085_4    TRAPEZOIDAL          1.50     5.64     0.76     6.76        1    32.59
  STMSUR01085_5    TRAPEZOIDAL          1.50     5.64     0.76     6.76        1    17.43
  STMSUR01085_6    TRAPEZOIDAL          1.50     5.64     0.76     6.76        1    34.51
  STMSUR01086      TRAPEZOIDAL          3.00    20.28     1.43    12.76        1   264.68
  STMSUR01092_1    TRAPEZOIDAL          1.50     5.64     0.76     6.76        1    30.50
  STMSUR01092_3    TRAPEZOIDAL          1.50     5.64     0.76     6.76        1    27.40
  STMSUR01092_4    TRAPEZOIDAL          1.50     5.64     0.76     6.76        1    27.40
  STMSUR01098_2    TRAPEZOIDAL          1.50     5.64     0.76     6.76        1    48.00
  STMSUR01315      TRAPEZOIDAL          1.50     5.63     0.75     6.75        1    17.00
  STMSUR01316      TRAPEZOIDAL          1.50     5.63     0.75     6.75        1    12.70
  STMSUR01317      TRAPEZOIDAL          1.50     5.63     0.75     6.75        1    18.78
  STMSUR01318      TRAPEZOIDAL          1.50     5.63     0.75     6.75        1    14.20
  STMSUR01319      TRAPEZOIDAL          1.50     5.63     0.75     6.75        1     6.82
  STMSUR01321_1    TRAPEZOIDAL          1.50     5.63     0.75     6.75        1    19.46
  STMSUR01321_2    TRAPEZOIDAL          1.50     5.63     0.75     6.75        1    15.72
  STMSUR01322_1    TRAPEZOIDAL          1.50     5.63     0.75     6.75        1    50.04
  STMSUR01322_2    TRAPEZOIDAL          1.50     5.63     0.75     6.75        1    25.99
  STMSUR01323      TRAPEZOIDAL          1.50     5.63     0.75     6.75        1    32.14
  STMSUR01324      TRAPEZOIDAL          1.50     5.63     0.75     6.75        1    36.45
  STMSUR01868      TRAPEZOIDAL          1.50     5.64     0.76     6.76        1    39.12
  STMSUR02131      TRAPEZOIDAL          1.50     5.63     0.75     6.75        1    41.54
  STMSUR02157      TRAPEZOIDAL          5.00    53.75     2.33    20.75        1   974.23
  STMSUR02161      TRAPEZOIDAL          1.50     5.63     0.75     6.75        1    33.52
  STMSUR02162_1    TRAPEZOIDAL          3.00    20.25     1.43    12.75        1   221.93
  STMSUR02162_2    TRAPEZOIDAL          3.00    20.25     1.43    12.75        1   289.98
  STMSUR02288      TRAPEZOIDAL          1.50     5.63     0.75     6.75        1    12.95
  STMSUR02292_1    TRAPEZOIDAL          1.50     5.63     0.75     6.75        1    23.99
  STMSUR02292_2    TRAPEZOIDAL          1.50     5.63     0.75     6.75        1    20.29
  STMSUR02338      TRAPEZOIDAL          1.50     5.63     0.75     6.75        1    70.86
  STMSUR02352      TRAPEZOIDAL          1.50     5.63     0.75     6.75        1    37.23
  STMSUR02494      TRAPEZOIDAL          1.50     5.63     0.75     6.75        1    19.70
  STMSUR02495      TRAPEZOIDAL          1.50     5.63     0.75     6.75        1    20.67
  STMSUR05465      TRAPEZOIDAL          1.50     5.63     0.75     6.75        1    70.44
  STMSUR05468      TRAPEZOIDAL          1.50     5.63     0.75     6.75        1    16.54
  STMSUR05469      TRAPEZOIDAL          1.50     5.63     0.75     6.75        1    32.94
  STMSUR05470      TRAPEZOIDAL          1.50     5.63     0.75     6.75        1    72.66
  STMSUR05472      TRAPEZOIDAL          1.39     4.91     0.70     6.31        1    49.34
  STMSUR05492      TRAPEZOIDAL          1.50     5.63     0.75     6.75        1    27.92
  STMSUR05493      TRAPEZOIDAL          1.50     5.63     0.75     6.75        1    15.43
  STMSUR05494      TRAPEZOIDAL          1.50     5.63     0.75     6.75        1    35.44
  STMSUR05668      TRAPEZOIDAL          1.50     5.63     0.75     6.75        1    47.92
  STMSUR05669      TRAPEZOIDAL          1.50     5.63     0.75     6.75        1    16.59
  STMSUR05678      TRAPEZOIDAL          1.50     5.63     0.75     6.75        1    19.65
  STMSUR05681      TRAPEZOIDAL          1.50     5.63     0.75     6.75        1     8.61
  STMSUR05684      TRAPEZOIDAL          1.50     5.63     0.75     6.75        1    94.85
  STMSUR05687      TRAPEZOIDAL          3.00    20.25     1.43    12.75        1   346.24
  STMSUR05690      TRAPEZOIDAL          1.50     5.63     0.75     6.75        1    26.39
  STMSUR05697      TRAPEZOIDAL          1.50     5.63     0.75     6.75        1    44.07
  STMSUR05698      TRAPEZOIDAL          1.50     5.63     0.75     6.75        1    25.71
  STMSUR05699      TRAPEZOIDAL          1.50     5.63     0.75     6.75        1    38.68
  STMSUR05706      TRAPEZOIDAL          1.50     5.63     0.75     6.75        1    61.32
  STMSUR05708      TRAPEZOIDAL          1.50     5.63     0.75     6.75        1    45.59
  STMSUR05709      TRAPEZOIDAL          1.50     5.63     0.75     6.75        1    37.34
  STMSUR05714      TRAPEZOIDAL          1.50     5.63     0.75     6.75        1    34.22
  STMSUR05718      TRAPEZOIDAL          1.50     5.63     0.75     6.75        1    43.21
  STMSUR05719      TRAPEZOIDAL          1.50     5.63     0.75     6.75        1    17.44
  STMSUR05720      TRAPEZOIDAL          1.50     5.63     0.75     6.75        1    29.38
  STMSUR05722      TRAPEZOIDAL          1.50     5.63     0.75     6.75        1    51.26
  STMSUR05726      TRAPEZOIDAL          1.50     5.63     0.75     6.75        1    37.50
  STMSUR05727      TRAPEZOIDAL          1.50     5.63     0.75     6.75        1    36.88
  STMSUR05730      TRAPEZOIDAL          1.50     5.63     0.75     6.75        1    57.23
  STMSUR05731      TRAPEZOIDAL          1.50     5.63     0.75     6.75        1    38.30
  STMSUR05733      TRAPEZOIDAL          1.50     5.63     0.75     6.75        1    45.97
  STMSUR05736      TRAPEZOIDAL          1.50     5.63     0.75     6.75        1    11.33
  STMSUR05737      TRAPEZOIDAL          1.50     5.63     0.75     6.75        1    43.10
  STMSUR05738      TRAPEZOIDAL          1.50     5.63     0.75     6.75        1    36.46
  STMSUR05739      TRAPEZOIDAL          1.50     5.63     0.75     6.75        1    41.16
  STMSUR05741      TRAPEZOIDAL          1.50     5.63     0.75     6.75        1    29.29
  STMSUR05750      TRAPEZOIDAL          1.50     5.63     0.75     6.75        1    47.45
  STMSUR05772      TRAPEZOIDAL          1.50     5.63     0.75     6.75        1    41.64
  STMSUR05773      TRAPEZOIDAL          1.50     5.63     0.75     6.75        1    58.39
  STMSUR05786_2    TRAPEZOIDAL          3.00    20.25     1.43    12.75        1   213.98
  STMSUR05797      TRAPEZOIDAL          1.50     5.63     0.75     6.75        1     2.11
  STMSUR05805      TRAPEZOIDAL          1.50     5.63     0.75     6.75        1    18.29
  STMSUR05807      TRAPEZOIDAL          1.50     5.63     0.75     6.75        1    34.93
  STMSUR05813      TRAPEZOIDAL          1.50     5.63     0.75     6.75        1    61.88
  STMSUR05841      TRAPEZOIDAL          1.50     5.63     0.75     6.75        1    17.50
  STMSUR06033      TRAPEZOIDAL          1.50     5.63     0.75     6.75        1    92.00
  STMSUR06034      TRAPEZOIDAL          5.00    65.00     2.56    23.00        1   682.79
  STMSUR06036      TRAPEZOIDAL          3.00    20.25     1.43    12.75        1   303.27
  STMSUR06037      TRAPEZOIDAL          3.00    20.25     1.43    12.75        1   165.30
  STMSUR06038      TRAPEZOIDAL          3.00    20.25     1.43    12.75        1   185.34
  STMSUR06039      TRAPEZOIDAL          3.00    20.25     1.43    12.75        1    40.31
  STMSUR06040      TRAPEZOIDAL          3.00    20.25     1.43    12.75        1   129.97
  STMSUR06041      TRAPEZOIDAL          3.00    20.25     1.43    12.75        1   221.73
  STMSUR06042      TRAPEZOIDAL          3.00    20.25     1.43    12.75        1   253.84
  STMSUR06043      TRAPEZOIDAL          4.50    51.75     2.29    20.50        1   445.32
  STMSUR06044      TRAPEZOIDAL          3.00    20.25     1.43    12.75        1   105.54
  STMSUR06046      TRAPEZOIDAL          3.00    20.25     1.43    12.75        1   312.27
  STMSUR06049      TRAPEZOIDAL          3.00    20.25     1.43    12.75        1   276.64
  STMSUR06065      TRAPEZOIDAL          1.50     5.63     0.75     6.75        1    60.95
  STMSUR06066      TRAPEZOIDAL          1.50     5.63     0.75     6.75        1    27.26
  STMSUR06069      TRAPEZOIDAL          3.00    20.25     1.43    12.75        1   385.43
  STMSUR06070      TRAPEZOIDAL          1.50     5.63     0.75     6.75        1    42.49
  STMSUR06071      TRAPEZOIDAL          1.50     5.63     0.75     6.75        1    52.40
  STMSUR06072      TRAPEZOIDAL          1.50     5.63     0.75     6.75        1    99.62
  STMSUR06073_1    TRAPEZOIDAL          1.50     5.63     0.75     6.75        1    37.94
  STMSUR06073_2    TRAPEZOIDAL          1.50     5.63     0.75     6.75        1    30.66
  STMSUR06074      TRAPEZOIDAL          1.50     5.63     0.75     6.75        1    35.63
  STMSUR06075      TRAPEZOIDAL          1.50     5.63     0.75     6.75        1    73.47
  STMSUR06098      TRAPEZOIDAL          3.00    20.25     1.43    12.75        1   323.28
  STMSUR06099      TRAPEZOIDAL          3.00    20.25     1.43    12.75        1   373.46
  STMSUR06100      TRAPEZOIDAL          3.00    20.25     1.43    12.75        1   597.18
  STMSUR06101      TRAPEZOIDAL          3.00    20.25     1.43    12.75        1   516.52
  STMSUR06103      TRAPEZOIDAL          1.50     5.63     0.75     6.75        1   123.73
  STMSUR06105      TRAPEZOIDAL          1.50     5.63     0.75     6.75        1   149.96
  STMSUR06106      TRAPEZOIDAL          3.00    20.25     1.43    12.75        1   520.82
  STMSUR06107      TRAPEZOIDAL          3.00    20.25     1.43    12.75        1   465.91
  STMSUR06113      TRAPEZOIDAL          1.50     5.63     0.75     6.75        1    20.29
  STMSUR06114      TRAPEZOIDAL          1.50     5.63     0.75     6.75        1    36.04
  STMSUR06115      TRAPEZOIDAL          1.50     5.63     0.75     6.75        1    39.63
  STMSUR06116      TRAPEZOIDAL          1.50     5.63     0.75     6.75        1    45.84
  STMSUR06117      TRAPEZOIDAL          1.50     5.63     0.75     6.75        1    24.39
  STMSUR06118      TRAPEZOIDAL          3.00    20.28     1.43    12.76        1   293.26
  STMSUR06119      TRAPEZOIDAL          1.50     5.63     0.75     6.75        1    47.36
  STMSUR06121      TRAPEZOIDAL          1.50     5.63     0.75     6.75        1    98.19
  STMSUR06122      TRAPEZOIDAL          1.50     5.63     0.75     6.75        1    48.94
  STMSUR06123      TRAPEZOIDAL          1.50     5.63     0.75     6.75        1    70.85
  STMSUR06125      TRAPEZOIDAL          1.50     5.63     0.75     6.75        1    45.96
  STMSUR06126      TRAPEZOIDAL          1.50     5.63     0.75     6.75        1    98.54
  STMSUR06129      TRAPEZOIDAL          1.50     5.63     0.75     6.75        1    20.72
  STMSUR06130      TRAPEZOIDAL          1.50     5.63     0.75     6.75        1    69.19
  STMSUR06149      TRAPEZOIDAL          3.00    20.25     1.43    12.75        1   379.94
  STMSUR06151      TRAPEZOIDAL          3.00    20.28     1.43    12.76        1   632.80
  STMSUR06152      TRAPEZOIDAL          3.00    20.28     1.43    12.76        1   396.23
  STMSUR06154      TRAPEZOIDAL          1.50     5.63     0.75     6.75        1    40.48
  STMSUR06155_1    TRAPEZOIDAL          1.50     5.63     0.75     6.75        1    76.10
  STMSUR06155_2    TRAPEZOIDAL          3.00    20.25     1.43    12.75        1   618.77
  STMSUR06202      TRAPEZOIDAL          1.50     5.63     0.75     6.75        1    63.77
  STMSUR06499      TRAPEZOIDAL          1.50     5.63     0.75     6.75        1    24.92
  
  
  ****************
  Transect Summary
  ****************

  Transect Transect1
  Area:  
              0.0011     0.0044     0.0085     0.0134     0.0189 
              0.0252     0.0321     0.0398     0.0482     0.0573 
              0.0670     0.0775     0.0887     0.1007     0.1133 
              0.1266     0.1406     0.1554     0.1708     0.1870 
              0.2038     0.2214     0.2396     0.2586     0.2783 
              0.2987     0.3198     0.3416     0.3641     0.3873 
              0.4112     0.4359     0.4612     0.4872     0.5140 
              0.5414     0.5696     0.5985     0.6280     0.6583 
              0.6893     0.7210     0.7534     0.7865     0.8203 
              0.8549     0.8901     0.9260     0.9627     1.0000 
  Hrad:  
              0.0185     0.0428     0.0704     0.0956     0.1194 
              0.1421     0.1641     0.1855     0.2066     0.2273 
              0.2478     0.2680     0.2881     0.3081     0.3279 
              0.3477     0.3673     0.3869     0.4065     0.4259 
              0.4454     0.4647     0.4841     0.5034     0.5227 
              0.5419     0.5612     0.5804     0.5996     0.6187 
              0.6379     0.6570     0.6762     0.6953     0.7144 
              0.7335     0.7526     0.7716     0.7907     0.8098 
              0.8288     0.8479     0.8669     0.8859     0.9050 
              0.9240     0.9430     0.9620     0.9810     1.0000 
  Width: 
              0.0607     0.1004     0.1191     0.1379     0.1566 
              0.1753     0.1941     0.2128     0.2316     0.2503 
              0.2691     0.2878     0.3065     0.3253     0.3440 
              0.3628     0.3815     0.4002     0.4190     0.4377 
              0.4565     0.4752     0.4940     0.5127     0.5314 
              0.5502     0.5689     0.5877     0.6064     0.6252 
              0.6439     0.6626     0.6814     0.7001     0.7189 
              0.7376     0.7564     0.7751     0.7938     0.8126 
              0.8313     0.8501     0.8688     0.8875     0.9063 
              0.9250     0.9438     0.9625     0.9813     1.0000 

  Transect TransectOverflow
  Area:  
              0.0198     0.0396     0.0594     0.0792     0.0990 
              0.1188     0.1387     0.1585     0.1784     0.1982 
              0.2181     0.2380     0.2579     0.2778     0.2977 
              0.3176     0.3375     0.3574     0.3774     0.3973 
              0.4173     0.4373     0.4572     0.4772     0.4972 
              0.5172     0.5372     0.5573     0.5773     0.5973 
              0.6174     0.6374     0.6575     0.6776     0.6977 
              0.7178     0.7379     0.7580     0.7781     0.7982 
              0.8184     0.8385     0.8587     0.8788     0.8990 
              0.9192     0.9394     0.9596     0.9798     1.0000 
  Hrad:  
              0.0220     0.0439     0.0657     0.0875     0.1091 
              0.1306     0.1521     0.1735     0.1948     0.2160 
              0.2371     0.2581     0.2791     0.3000     0.3207 
              0.3415     0.3621     0.3826     0.4031     0.4235 
              0.4438     0.4640     0.4841     0.5042     0.5242 
              0.5441     0.5639     0.5837     0.6033     0.6230 
              0.6425     0.6619     0.6813     0.7006     0.7199 
              0.7390     0.7581     0.7771     0.7961     0.8150 
              0.8338     0.8525     0.8712     0.8898     0.9083 
              0.9268     0.9452     0.9635     0.9818     1.0000 
  Width: 
              0.9785     0.9789     0.9793     0.9798     0.9802 
              0.9807     0.9811     0.9815     0.9820     0.9824 
              0.9829     0.9833     0.9837     0.9842     0.9846 
              0.9851     0.9855     0.9859     0.9864     0.9868 
              0.9873     0.9877     0.9881     0.9886     0.9890 
              0.9895     0.9899     0.9903     0.9908     0.9912 
              0.9916     0.9921     0.9925     0.9930     0.9934 
              0.9938     0.9943     0.9947     0.9952     0.9956 
              0.9960     0.9965     0.9969     0.9974     0.9978 
              0.9982     0.9987     0.9991     0.9996     1.0000 
  
  
  ****************
  Analysis Options
  ****************
  Flow Units ............... CMS
  Process Models:
    Rainfall/Runoff ........ YES
    RDII ................... NO
    Snowmelt ............... NO
    Groundwater ............ YES
    Flow Routing ........... YES
    Ponding Allowed ........ YES
    Water Quality .......... NO
  Infiltration Method ...... GREEN_AMPT
  Flow Routing Method ...... DYNWAVE
  Surcharge Method ......... EXTRAN
  Starting Date ............ 01/03/2001 19:25:00
  Ending Date .............. 01/05/2001 19:25:00
  Antecedent Dry Days ...... 0.0
  Report Time Step ......... 00:05:00
  Wet Time Step ............ 00:01:00
  Dry Time Step ............ 00:01:00
  Routing Time Step ........ 10.00 sec
  Variable Time Step ....... YES
  Maximum Trials ........... 8
  Number of Threads ........ 2
  Head Tolerance ........... 0.001500 m
  
  
  *********************
  Rainfall File Summary
  *********************
  Station    First        Last         Recording   Periods    Periods    Periods
  ID         Date         Date         Frequency  w/Precip    Missing    Malfunc.
  -------------------------------------------------------------------------------
  
  
  ERROR 317: cannot open rainfall data file \\mainfile-van\Projects\Active\3000714_DNV_SWMM\Model\PCSWMM\AdditionalWork_Scen5_ExDSB\timeseries\DN25_SCALING_200yr_RG_file.dat.

  Analysis begun on:  Wed Jun 24 14:53:31 2026
  Analysis ended on:  Wed Jun 24 14:53:33 2026
  Total elapsed time: 00:00:02