
  EPA STORM WATER MANAGEMENT MODEL - VERSION 5.2 (Build 5.2.4)
  ------------------------------------------------------------

  WARNING 04: minimum elevation drop used for Conduit 26SUMP_1
  WARNING 04: minimum elevation drop used for Conduit 26SUMP_2
  WARNING 04: minimum elevation drop used for Conduit 26SUMP_3
  WARNING 04: minimum elevation drop used for Conduit 26SUMP_4
  WARNING 02: maximum depth increased for Node 26SUMP_J1
  WARNING 02: maximum depth increased for Node 26SUMP_J4
  
  ****************
  Analysis Options
  ****************
  Flow Units ............... CFS
  Process Models:
    Rainfall/Runoff ........ YES
    RDII ................... NO
    Snowmelt ............... NO
    Groundwater ............ NO
    Flow Routing ........... YES
    Ponding Allowed ........ YES
    Water Quality .......... NO
  Infiltration Method ...... GREEN_AMPT
  Flow Routing Method ...... DYNWAVE
  Surcharge Method ......... EXTRAN
  Starting Date ............ 01/01/2020 00:00:00
  Ending Date .............. 01/03/2020 00:00:00
  Antecedent Dry Days ...... 0.0
  Report Time Step ......... 00:05:00
  Wet Time Step ............ 00:01:00
  Dry Time Step ............ 00:01:00
  Routing Time Step ........ 5.00 sec
  Variable Time Step ....... YES
  Maximum Trials ........... 20
  Number of Threads ........ 1
  Head Tolerance ........... 0.001000 ft
  
  
  **************************        Volume         Depth
  Runoff Quantity Continuity     acre-feet        inches
  **************************     ---------       -------
  Total Precipitation ......        53.920         0.981
  Evaporation Loss .........         0.000         0.000
  Infiltration Loss ........        26.368         0.480
  Surface Runoff ...........        25.477         0.464
  Final Storage ............         2.079         0.038
  Continuity Error (%) .....        -0.006
  
  
  **************************        Volume        Volume
  Flow Routing Continuity        acre-feet      10^6 gal
  **************************     ---------     ---------
  Dry Weather Inflow .......        15.848         5.164
  Wet Weather Inflow .......        25.477         8.302
  Groundwater Inflow .......         0.000         0.000
  RDII Inflow ..............         0.000         0.000
  External Inflow ..........       106.896        34.834
  External Outflow .........      1272.449       414.646
  Flooding Loss ............     43851.204     14289.570
  Evaporation Loss .........         0.000         0.000
  Exfiltration Loss ........         0.000         0.000
  Initial Stored Volume ....         0.000         0.000
  Final Stored Volume ......        11.657         3.799
  Continuity Error (%) .....    -30351.446
  
  
  *************************
  Highest Continuity Errors
  *************************
  Node 26SUMPDS_J1 (-18846.17%)
  Node 26SUMPDS_J3 (-999.05%)
  Node 26SUMPDS_J2 (-841.30%)
  Node 26SUMP_J3 (-209.53%)
  Node 26FCDS_J1 (-115.98%)
  
  
  ***************************
  Time-Step Critical Elements
  ***************************
  Link 26CTI_3 (67.72%)
  Link 26CTIRLF_4 (9.63%)
  Link 26FC_1 (6.49%)
  Link 26CTI_1 (5.02%)
  Link 26FC_3 (4.94%)
  
  
  ********************************
  Highest Flow Instability Indexes
  ********************************
  Link 54231P (132)
  Link 54226P (123)
  Link LINK77 (109)
  Link 25RLFWR (108)
  Link 43021P (102)
  
  
  *********************************
  Most Frequent Nonconverging Nodes
  *********************************
  Node 25OF7 (98.48%)
  Node 26_OF_MH (98.48%)
  Node 501060 (98.48%)
  Node 4313524 (86.13%)
  Node 4313524CD (81.82%)
  
  
  *************************
  Routing Time Step Summary
  *************************
  Minimum Time Step           :     5.00 sec
  Average Time Step           :     5.00 sec
  Maximum Time Step           :     5.00 sec
  % of Time in Steady State   :     0.00
  Average Iterations per Step :    19.84
  % of Steps Not Converging   :    98.48
  Time Step Frequencies       :
      5.000 -  5.000 sec      :     0.00 %
      5.000 -  5.000 sec      :     0.00 %
      5.000 -  5.000 sec      :     0.00 %
      5.000 -  5.000 sec      :     0.00 %
      5.000 -  5.000 sec      :   100.00 %
  
  
  ***************************
  Subcatchment Runoff Summary
  ***************************
  
  ------------------------------------------------------------------------------------------------------------------------------
                            Total      Total      Total      Total     Imperv       Perv      Total       Total     Peak  Runoff
                           Precip      Runon       Evap      Infil     Runoff     Runoff     Runoff      Runoff   Runoff   Coeff
  Subcatchment                 in         in         in         in         in         in         in    10^6 gal      CFS
  ------------------------------------------------------------------------------------------------------------------------------
  0600466ND#1                0.98       0.00       0.00       0.00       0.91       0.00       0.91        0.18     5.21   0.923
  26DETTANK1#1               0.98       0.00       0.00       0.00       0.91       0.00       0.91        0.04     1.34   0.923
  26DETTANK2#1               0.98       0.00       0.00       0.00       0.91       0.00       0.91        0.02     0.84   0.924
  26DETTANK3#1               0.98       0.00       0.00       0.00       0.91       0.00       0.91        0.00     0.22   0.924
  26DETTANK4#1               0.98       0.00       0.00       0.00       0.91       0.00       0.91        0.01     0.52   0.924
  26DETTANK5#1               0.98       0.00       0.00       0.00       0.91       0.00       0.91        0.01     0.57   0.924
  26DETTANK6#1               0.98       0.00       0.00       0.00       0.91       0.00       0.91        0.04     1.44   0.923
  4302321#1                  0.98       0.00       0.00       0.58       0.34       0.03       0.38        0.10     4.64   0.383
  4303512#1                  0.98       0.00       0.00       0.34       0.58       0.02       0.60        0.18     5.55   0.609
  5401863#1                  0.98       0.00       0.00       0.31       0.61       0.01       0.62        0.93    16.78   0.631
  5401954#1                  0.98       0.00       0.00       0.09       0.81       0.01       0.82        0.27     8.76   0.838
  5403154#1                  0.98       0.00       0.00       0.19       0.71       0.02       0.73        0.01     0.75   0.744
  5403618#1                  0.98       0.00       0.00       0.27       0.63       0.03       0.65        0.05     2.59   0.667
  5403915#1                  0.98       0.00       0.00       0.23       0.67       0.02       0.69        0.08     3.71   0.705
  5404418#1                  0.98       0.00       0.00       0.39       0.53       0.01       0.55        0.17     6.06   0.559
  5404715#1                  0.98       0.00       0.00       0.28       0.63       0.02       0.65        0.10     4.83   0.660
  5407024#1                  0.98       0.00       0.00       0.49       0.45       0.00       0.45        0.42     8.20   0.460
  5420821#1                  0.98       0.00       0.00       0.87       0.09       0.01       0.10        0.06     3.03   0.104
  5420921#1                  0.98       0.00       0.00       0.67       0.27       0.01       0.28        0.14     5.91   0.290
  5421518#1                  0.98       0.00       0.00       0.73       0.21       0.03       0.23        0.05     2.78   0.239
  5421615#1                  0.98       0.00       0.00       0.53       0.38       0.03       0.42        0.04     2.33   0.423
  5421715#1                  0.98       0.00       0.00       0.22       0.69       0.02       0.71        0.13     6.44   0.721
  5421815#1                  0.98       0.00       0.00       0.24       0.67       0.02       0.69        0.08     3.87   0.702
  5422015#1                  0.98       0.00       0.00       0.35       0.57       0.02       0.59        0.13     6.16   0.600
  5422115#1                  0.98       0.00       0.00       0.21       0.69       0.02       0.72        0.04     1.97   0.732
  5422215#1                  0.98       0.00       0.00       0.18       0.72       0.02       0.74        0.06     2.85   0.752
  5422308#1                  0.98       0.00       0.00       0.43       0.47       0.04       0.51        0.04     2.52   0.519
  5422615#1                  0.98       0.00       0.00       0.56       0.36       0.03       0.39        0.01     0.56   0.399
  5422712#1                  0.98       0.00       0.00       0.57       0.36       0.02       0.38        0.02     0.90   0.389
  5422812#1                  0.98       0.00       0.00       0.58       0.36       0.01       0.38        0.03     1.27   0.383
  5422912#1                  0.98       0.00       0.00       0.57       0.36       0.02       0.38        0.02     0.81   0.391
  5423012#1                  0.98       0.00       0.00       0.59       0.36       0.00       0.36        0.16     2.89   0.371
  5424010#1                  0.98       0.00       0.00       0.73       0.23       0.01       0.23        0.07     1.93   0.236
  5424918#1                  0.98       0.00       0.00       0.27       0.65       0.01       0.65        0.54    11.88   0.667
  5425324#1                  0.98       0.00       0.00       0.33       0.58       0.02       0.60        0.11     5.33   0.614
  5425536#1                  0.98       0.00       0.00       0.55       0.36       0.03       0.40        0.03     1.76   0.406
  5425736#1                  0.98       0.00       0.00       0.24       0.68       0.01       0.69        0.38    12.37   0.702
  5426115#1                  0.98       0.00       0.00       0.20       0.71       0.02       0.72        0.11     4.92   0.738
  5426215#1                  0.98       0.00       0.00       0.17       0.74       0.01       0.75        0.17     5.24   0.766
  5426310#1                  0.98       0.00       0.00       0.05       0.86       0.01       0.86        0.11     4.27   0.878
  5426510#1                  0.98       0.00       0.00       0.48       0.43       0.04       0.46        0.06     3.45   0.472
  5426608#1                  0.98       0.00       0.00       0.16       0.74       0.02       0.76        0.07     3.35   0.771
  5426932#1                  0.98       0.00       0.00       0.04       0.87       0.00       0.87        0.08     3.24   0.889
  5427133#1                  0.98       0.00       0.00       0.05       0.86       0.01       0.86        0.11     4.08   0.880
  5427536#1                  0.98       0.00       0.00       0.08       0.82       0.01       0.83        0.49    12.68   0.843
  5428215#1                  0.98       0.00       0.00       0.75       0.18       0.04       0.22        0.04     2.48   0.225
  5428315#1                  0.98       0.00       0.00       0.82       0.14       0.01       0.15        0.12     5.76   0.153
  5428512#1                  0.98       0.00       0.00       0.80       0.16       0.01       0.17        0.23     7.59   0.171
  5428712#1                  0.98       0.00       0.00       0.77       0.16       0.04       0.20        0.04     2.89   0.202
  5429608#1                  0.98       0.00       0.00       0.74       0.18       0.05       0.23        0.02     1.40   0.231
  5429708#1                  0.98       0.00       0.00       0.77       0.16       0.03       0.20        0.03     1.96   0.200
  5429808#1                  0.98       0.00       0.00       0.78       0.16       0.02       0.18        0.06     2.94   0.187
  5429908#1                  0.98       0.00       0.00       0.78       0.16       0.03       0.19        0.04     2.64   0.196
  5430208#1                  0.98       0.00       0.00       0.72       0.21       0.04       0.25        0.06     3.75   0.253
  5430706#1                  0.98       0.00       0.00       0.22       0.68       0.03       0.70        0.02     1.25   0.715
  5431512#1                  0.98       0.00       0.00       0.56       0.36       0.02       0.39        0.12     5.84   0.394
  5432208#1                  0.98       0.00       0.00       0.54       0.36       0.05       0.41        0.03     1.89   0.419
  5432608#1                  0.98       0.00       0.00       0.58       0.35       0.03       0.37        0.08     3.94   0.381
  5450915#1                  0.98       0.00       0.00       0.71       0.23       0.03       0.26        0.03     1.74   0.260
  5451115#1                  0.98       0.00       0.00       0.67       0.27       0.02       0.29        0.05     2.30   0.297
  5453010#1                  0.98       0.00       0.00       0.01       0.90       0.00       0.90        0.04     1.68   0.918
  5453108#1                  0.98       0.00       0.00       0.10       0.80       0.01       0.82        0.08     3.81   0.831
  5453308#1                  0.98       0.00       0.00       0.27       0.63       0.03       0.66        0.03     1.50   0.669
  5453612#1                  0.98       0.00       0.00       0.22       0.69       0.02       0.71        0.11     5.33   0.721
  5454408#1                  0.98       0.00       0.00       0.69       0.24       0.03       0.27        0.09     4.65   0.274
  5456110#1                  0.98       0.00       0.00       0.14       0.77       0.01       0.78        0.07     2.97   0.795
  5457710#1                  0.98       0.00       0.00       0.16       0.74       0.02       0.76        0.04     1.97   0.774
  5457908#1                  0.98       0.00       0.00       0.09       0.82       0.01       0.83        0.11     4.58   0.842
  5458110#1                  0.98       0.00       0.00       0.33       0.57       0.03       0.60        0.03     1.61   0.612
  5458310#1                  0.98       0.00       0.00       0.32       0.60       0.02       0.62        0.11     4.91   0.627
  5459508#1                  0.98       0.00       0.00       0.14       0.76       0.01       0.78        0.12     5.10   0.792
  5459810#1                  0.98       0.00       0.00       0.76       0.18       0.02       0.21        0.05     2.47   0.209
  5460310#1                  0.98       0.00       0.00       0.24       0.68       0.01       0.68        0.34     8.01   0.696
  5462312#1                  0.98       0.00       0.00       0.76       0.16       0.04       0.21        0.04     2.82   0.212
  5462708#1                  0.98       0.00       0.00       0.77       0.16       0.04       0.20        0.05     3.13   0.205
  5463608#1                  0.98       0.00       0.00       0.80       0.14       0.04       0.17        0.02     1.50   0.178
  5464308#1                  0.98       0.00       0.00       0.73       0.18       0.05       0.23        0.01     1.01   0.237
  5473208#1                  0.98       0.00       0.00       0.62       0.27       0.07       0.34        0.01     0.62   0.348
  5474108#1                  0.98       0.00       0.00       0.71       0.23       0.02       0.25        0.05     2.70   0.254
  
  
  ******************
  Node Depth Summary
  ******************
  
  ---------------------------------------------------------------------------------
                                 Average  Maximum  Maximum  Time of Max    Reported
                                   Depth    Depth      HGL   Occurrence   Max Depth
  Node                 Type         Feet     Feet     Feet  days hr:min        Feet
  ---------------------------------------------------------------------------------
  0600242CD&MH6        JUNCTION     2.38     2.56  1851.55     1  18:45        2.56
  0600466ND            JUNCTION    12.01    19.39  1871.69     0  12:15       19.13
  25OF1                JUNCTION     1.95    15.76  1781.78     0  16:32       13.56
  25OF2                JUNCTION     1.18     3.00  1754.08     0  06:02        3.00
  25OF3                JUNCTION     2.24     7.00  1746.87     0  08:43        6.93
  25OF4                JUNCTION     4.30     9.79  1738.87     0  06:02        9.79
  25OF5                JUNCTION     3.07     7.56  1731.37     0  06:02        7.56
  25OF6                JUNCTION     1.36     2.30  1723.37     0  06:02        2.30
  26CTIRLF_J1          JUNCTION    12.29    21.00  1871.17     0  12:11       21.00
  26CTIRLF_J2          JUNCTION    13.95    25.00  1870.25     0  12:13       25.00
  26CTI_J1             JUNCTION    13.29    21.00  1871.17     0  12:12       21.00
  26CTI_J2             JUNCTION    13.40    21.00  1870.89     0  12:13       21.00
  26FCDS_J1            JUNCTION    15.45    30.00  1862.92     0  11:59       30.00
  26FCDS_J2            JUNCTION    19.17    30.00  1862.92     0  11:59       30.00
  26FCDS_J3            JUNCTION    16.80    30.00  1862.92     0  11:59       30.00
  26FCDS_J4            JUNCTION    16.35    30.00  1862.92     0  11:59       30.00
  26FCUS_J1            JUNCTION    14.43    30.00  1864.32     0  12:00       30.00
  26FCUS_J2            JUNCTION    13.74    30.00  1864.32     0  11:59       30.00
  26FCUS_J3            JUNCTION    15.98    30.00  1864.32     0  12:00       30.00
  26FCUS_J4            JUNCTION    17.80    30.00  1864.32     0  11:59       30.00
  26FWUS_J1            JUNCTION    18.75    25.00  1857.09     0  12:00       25.00
  26FWUS_J2            JUNCTION    18.75    25.00  1857.09     0  12:00       25.00
  26FWUS_J3            JUNCTION    18.75    25.00  1857.09     0  12:00       25.00
  26FWUS_J4            JUNCTION    17.80    25.00  1857.09     0  12:01       25.00
  26RLF_J1             JUNCTION    10.64    15.00  1855.00     0  11:59       15.00
  26SUMPDS_J1          JUNCTION    24.75    35.00  1859.00     0  12:00       35.00
  26SUMPDS_J2          JUNCTION    24.75    35.00  1859.00     0  12:00       33.00
  26SUMPDS_J3          JUNCTION    24.75    35.00  1859.00     0  11:59       33.00
  26SUMPDS_J4          JUNCTION    23.16    35.00  1859.00     0  12:00       35.00
  26SUMP_J1            JUNCTION    24.05    34.07  1858.07     0  12:03       32.55
  26SUMP_J2            JUNCTION    24.05    35.00  1859.00     0  12:00       32.51
  26SUMP_J3            JUNCTION    24.05    35.00  1859.00     0  12:00       32.06
  26SUMP_J4            JUNCTION    23.87    35.00  1859.00     0  12:00       35.00
  4302108              JUNCTION     3.40    11.17  1789.13     0  06:03       11.17
  4302221              JUNCTION     0.35     4.88  1788.45     0  16:14        1.78
  4302321              JUNCTION     0.08     1.49  1786.10     0  12:23        1.19
  4302521              JUNCTION     0.06     0.52  1797.19     0  12:16        0.52
  4302612              JUNCTION     0.05     0.44  1820.72     0  12:15        0.44
  4302812              JUNCTION     0.06     0.62  1826.76     0  12:15        0.62
  4303012              JUNCTION     0.05     0.48  1843.98     0  12:15        0.48
  4303112              JUNCTION     0.05     0.55  1846.65     0  12:15        0.55
  4303212              JUNCTION     0.05     0.51  1856.13     0  12:15        0.51
  4303312              JUNCTION     0.06     0.64  1858.53     0  12:15        0.64
  4303412              JUNCTION     0.09     1.77  1860.52     0  12:17        1.76
  4303512              JUNCTION     0.09     4.04  1866.21     0  12:11        3.83
  4303612              JUNCTION     0.00     0.49  1865.99     0  12:17        0.37
  4303710              JUNCTION     0.00     0.00  1869.26     0  00:00        0.00
  4303810              JUNCTION     0.00     0.00  1872.98     0  00:00        0.00
  4312208              JUNCTION     0.00     0.00  1845.70     0  00:00        0.00
  4312330              JUNCTION     0.00     0.00  1846.20     0  00:00        0.00
  4313210CD            JUNCTION     3.75     9.66  1787.06     0  11:33        9.32
  4313524              JUNCTION     3.11    10.24  1788.40     0  06:04       10.24
  4313524CD            JUNCTION     3.28     9.23  1787.09     0  11:33        8.77
  500260               JUNCTION     1.77     1.89  1849.50     0  18:44        1.89
  500354               JUNCTION     0.83     1.02  1849.57     0  18:42        0.99
  5401366              JUNCTION    11.80    19.57  1872.09     0  12:52       19.04
  5401463              JUNCTION    10.76    18.76  1872.42     0  12:12       17.87
  5401563              JUNCTION     9.25    22.09  1877.82     0  12:12       15.17
  5401663              JUNCTION     7.86    19.20  1876.80     0  12:12       13.42
  5401763              JUNCTION     6.97    20.53  1879.32     0  12:12       12.61
  5401863              JUNCTION     5.53    14.18  1874.88     0  12:13       11.11
  5401954              JUNCTION     4.04    13.54  1876.23     0  12:13       10.25
  5402054              JUNCTION     1.51    10.36  1876.40     0  12:13        8.05
  5402142              JUNCTION     0.43     4.25  1876.27     0  12:16        3.88
  5402239              JUNCTION     0.38     1.68  1880.52     0  12:16        1.56
  5402339              JUNCTION     0.40     1.66  1885.45     0  12:16        1.62
  5402433              JUNCTION     0.33     1.40  1895.10     0  12:16        1.37
  5402554              JUNCTION     0.58     2.22  1896.36     0  12:16        2.18
  5402654              JUNCTION     0.60     2.51  1897.16     0  12:16        2.49
  5402754              JUNCTION     0.60     2.62  1897.99     0  12:15        2.60
  5402854              JUNCTION     0.02     1.07  1902.49     0  12:15        1.07
  5402954              JUNCTION     0.04     6.05  1919.92     0  12:13        5.98
  5403054              JUNCTION     0.04     7.50  1934.87     0  12:13        7.50
  5403154              JUNCTION     0.02     1.18  1958.05     0  12:15        1.15
  5403254              JUNCTION     0.02     1.62  1973.77     0  12:15        1.54
  5403354              JUNCTION     0.26     4.28  1976.25     0  12:15        4.17
  5403424              JUNCTION     0.14     6.56  1981.76     0  12:15        6.45
  5403524              JUNCTION     0.18     4.14  1985.30     0  12:14        3.44
  5403618              JUNCTION     0.13     0.91  2007.24     0  12:15        0.91
  5403715              JUNCTION     0.12     0.89  2037.04     0  12:20        0.89
  5403815              JUNCTION     0.16     6.39  2060.25     0  12:09        6.38
  5403915              JUNCTION     0.19     9.50  2066.17     0  12:09        9.50
  5404015              JUNCTION     0.14     9.26  2067.63     0  12:14        9.25
  5404115              JUNCTION     0.11     3.51  2073.36     0  12:15        3.51
  5404215              JUNCTION     0.18     6.32  2077.52     0  12:15        6.32
  5404318              JUNCTION     0.20     7.09  2078.66     0  12:15        7.08
  5404418              JUNCTION     0.20     8.61  2081.18     0  12:15        8.60
  5404515              JUNCTION     0.14     7.88  2081.24     0  12:15        7.86
  5404615              JUNCTION     0.15     7.02  2081.30     0  12:15        7.02
  5404715              JUNCTION     0.14     7.00  2081.89     0  12:10        7.00
  5405910              JUNCTION     0.16     0.57  1897.98     0  12:16        0.56
  5407024              JUNCTION     0.28     7.14  1981.34     0  12:15        7.03
  5413854              JUNCTION     2.38    11.41  1876.35     0  12:13        9.00
  5417212CD            JUNCTION     4.39    17.75  1879.91     0  12:12        9.24
  5417312CD            JUNCTION     4.22    17.21  1879.65     0  12:13       17.21
  5417412CD            JUNCTION     3.93    16.32  1879.21     0  12:13       16.32
  5417512CD            JUNCTION     2.33    11.84  1877.04     0  12:15        9.56
  5420420              JUNCTION     6.03    12.00  1871.87     0  12:25       11.76
  5420521              JUNCTION     4.57    10.65  1872.58     0  12:17        9.39
  5420621              JUNCTION     3.59    10.05  1873.32     0  12:17        8.38
  5420718              JUNCTION     3.16     9.76  1873.63     0  12:17        8.22
  5420821              JUNCTION     0.70     9.56  1876.83     0  12:13        5.82
  5420921              JUNCTION     0.18     6.66  1876.99     0  12:15        3.58
  5421021              JUNCTION     0.12     0.84  1874.11     0  12:18        0.80
  5421121              JUNCTION     0.09     0.41  1880.04     0  12:17        0.39
  5421221              JUNCTION     0.09     0.46  1881.33     0  12:17        0.44
  5421321              JUNCTION     0.08     0.49  1885.36     0  12:16        0.47
  5421418              JUNCTION     0.09     0.56  1891.43     0  12:16        0.55
  5421518              JUNCTION     0.08     0.71  1893.58     0  12:15        0.70
  5421615              JUNCTION     0.32     1.72  1906.09     0  12:15        1.72
  5421715              JUNCTION     0.32     9.00  1931.87     0  12:07        9.00
  5421815              JUNCTION     0.35     7.99  1944.86     0  12:13        7.98
  5421915              JUNCTION     1.27     7.83  1945.37     0  11:58        7.83
  5422015              JUNCTION     0.24     9.00  1971.87     0  12:14        9.00
  5422115              JUNCTION     0.26     3.74  1975.56     0  12:15        3.66
  5422215              JUNCTION     0.11     6.43  1981.30     0  12:15        6.32
  5422308              JUNCTION     0.10    10.67  1989.87     0  12:10       10.67
  5422408              JUNCTION     0.00     0.00  1999.87     0  00:00        0.00
  5422508              JUNCTION     0.00     0.00  2004.87     0  00:00        0.00
  5422615              JUNCTION     0.06     0.10  1864.71     0  12:12        0.09
  5422712              JUNCTION     2.16    11.94  1877.38     0  12:15        9.70
  5422812              JUNCTION     1.92    12.35  1878.37     0  12:12       12.35
  5422912              JUNCTION     1.01    13.40  1880.87     0  12:12       13.40
  5423012              JUNCTION     0.69    14.23  1882.73     0  12:12       13.86
  5423112              JUNCTION     0.48    12.93  1882.30     0  12:12       12.73
  5423212              JUNCTION     0.47    11.80  1881.87     0  12:11       11.80
  5423312              JUNCTION     0.46    11.70  1881.87     0  12:11       11.70
  5423412              JUNCTION     0.41    11.32  1882.69     0  12:11       11.13
  5423510              JUNCTION     0.44    11.70  1883.87     0  12:11       11.70
  5423610              JUNCTION     0.30    11.00  1886.07     0  12:11       11.00
  5423710              JUNCTION     0.24     9.98  1888.65     0  12:13        9.62
  5423810              JUNCTION     0.32    10.61  1889.48     0  12:13       10.23
  5424010              JUNCTION     0.16     7.34  1895.21     0  12:13        5.84
  5424518              JUNCTION     4.56     6.00  1866.95     0  12:13        6.00
  5424618              JUNCTION     0.15     0.17  1868.19     1  14:00        0.17
  5424718              JUNCTION     0.12     8.69  1879.56     0  12:13        5.72
  5424818              JUNCTION     0.13     3.37  1879.24     0  12:13        1.56
  5424918              JUNCTION     0.28     3.29  1879.66     0  12:15        2.62
  5425018              JUNCTION     0.01     2.38  1879.66     0  12:15        1.70
  5425118              JUNCTION     0.00     1.52  1879.67     0  12:15        0.82
  5425324              JUNCTION     0.18     1.34  1891.31     0  12:16        1.28
  5425436              JUNCTION     0.25     1.70  1894.07     0  12:17        1.65
  5425536              JUNCTION     0.34     2.47  1896.19     0  12:16        2.42
  5425636              JUNCTION     0.26     2.43  1896.45     0  12:16        2.39
  5425736              JUNCTION     0.25     1.68  1897.97     0  12:15        1.67
  5425815              JUNCTION     0.24     6.77  1905.64     0  12:15        6.73
  5425918              JUNCTION     0.11     0.59  1915.96     0  12:15        0.59
  5426021              JUNCTION     0.20     1.15  1920.82     0  12:15        1.15
  5426115              JUNCTION     0.24    10.45  1932.82     0  12:15       10.45
  5426215              JUNCTION     0.19     9.00  1936.37     0  12:11        9.00
  5426310              JUNCTION     0.22     9.70  1938.87     0  12:02        9.70
  5426410              JUNCTION     0.22    12.00  1941.87     0  12:02       12.00
  5426510              JUNCTION     0.12     9.00  1945.87     0  12:02        9.00
  5426608              JUNCTION     0.13     9.00  1948.87     0  12:02        9.00
  5426832              JUNCTION     1.22     9.90  1876.28     0  12:13        8.01
  5426932              JUNCTION     0.42    12.08  1880.29     0  12:13        8.00
  5427033              JUNCTION     0.27    11.00  1881.82     0  12:13        7.21
  5427133              JUNCTION     0.26     8.26  1882.01     0  12:14        6.10
  5427210              JUNCTION     1.89     6.00  1904.37     0  09:32        6.00
  5427310              JUNCTION     0.87     4.38  1905.35     0  12:15        4.37
  5427410              JUNCTION     0.33     1.87  1905.79     0  12:15        1.86
  5427536              JUNCTION     0.40     1.22  1901.09     0  12:15        1.22
  5427624              JUNCTION     0.27     0.55  1903.62     0  12:00        0.55
  5427724              JUNCTION     0.35     0.80  1904.83     0  12:56        0.80
  5427815              JUNCTION     0.67     4.23  1911.69     0  11:59        4.22
  5427915              JUNCTION     0.72     7.05  1918.42     0  11:59        7.02
  5428015              JUNCTION     0.94     9.50  1927.70     0  11:59        9.50
  5428115              JUNCTION     0.80    11.75  1934.87     0  12:03       11.75
  5428215              JUNCTION     0.67    11.60  1939.17     0  12:10       11.60
  5428315              JUNCTION     0.66    11.22  1940.47     0  12:15       11.22
  5428412              JUNCTION     0.54     9.68  1944.37     0  11:59        9.68
  5428512              JUNCTION     0.55    10.50  1950.87     0  11:56       10.50
  5428612              JUNCTION     0.60    15.72  1961.59     0  12:03       15.72
  5428712              JUNCTION     0.36    11.35  1973.87     0  12:04       11.35
  5428812              JUNCTION     0.37     9.26  1974.93     0  12:13        9.24
  5428912              JUNCTION     0.26     6.43  1975.30     0  12:16        6.40
  5429010              JUNCTION     0.40     6.80  1976.87     0  12:13        6.80
  5429108              JUNCTION     0.31     3.09  1977.87     0  11:52        3.09
  5429208              JUNCTION     0.37     9.39  1990.87     0  11:58        9.39
  5429308              JUNCTION     0.39    10.41  1992.87     0  11:59       10.41
  5429408              JUNCTION     0.28     8.28  2007.96     0  12:01        8.20
  5429508              JUNCTION     0.23     5.21  2022.08     0  12:01        5.14
  5429608              JUNCTION     0.33     7.00  2024.87     0  12:01        7.00
  5429708              JUNCTION     0.79     9.00  2041.87     0  12:01        9.00
  5429808              JUNCTION     0.27    12.50  2060.87     0  12:08       12.50
  5429908              JUNCTION     0.19     8.00  2067.87     0  12:07        8.00
  5430008              JUNCTION     0.06     8.00  2069.37     0  12:07        6.52
  5430108              JUNCTION     0.00     0.00  2090.87     0  00:00        0.00
  5430208              JUNCTION     0.08     0.61  2005.48     0  12:15        0.59
  5430308              JUNCTION     0.04     0.04  2016.91     1  10:14        0.04
  5430408              JUNCTION     0.04     0.04  2042.91     1  10:58        0.04
  5430612              JUNCTION     0.05     0.28  1990.15     0  12:15        0.28
  5430706              JUNCTION     0.04     7.48  2009.70     0  12:10        6.58
  5430808              JUNCTION     0.00     0.27  2008.79     0  12:15        0.26
  5430908              JUNCTION     0.00     0.00  2025.87     0  00:00        0.00
  5431008              JUNCTION     0.00     0.00  2032.87     0  00:00        0.00
  5431110              JUNCTION     0.00     0.00  2056.87     0  00:00        0.00
  5431208              JUNCTION     0.01     5.99  2069.86     0  12:10        2.30
  5431308              JUNCTION     0.00     0.03  2066.90     0  12:10        0.02
  5431412              JUNCTION     0.11     7.63  2071.25     0  12:08        6.87
  5431512              JUNCTION     0.15     8.99  2074.86     0  12:08        8.49
  5431612              JUNCTION     0.08     6.75  2074.22     0  12:08        6.59
  5431712              JUNCTION     0.03     5.50  2073.87     0  12:08        5.50
  5431808              JUNCTION     0.02     5.54  2080.59     0  12:15        5.54
  5431912              JUNCTION     0.10     6.69  2082.06     0  12:13        6.68
  5432008              JUNCTION     0.05     2.70  2087.66     0  12:15        2.66
  5432108              JUNCTION     0.05     0.45  2092.11     0  12:15        0.45
  5432208              JUNCTION     0.07     2.78  2096.05     0  12:15        2.76
  5432308              JUNCTION     0.00     0.00  2102.69     0  00:00        0.00
  5432408              JUNCTION     0.00     0.00  2110.13     0  00:00        0.00
  5432510              JUNCTION     0.08     7.19  2082.48     0  12:15        7.19
  5432608              JUNCTION     0.05     5.20  2122.07     0  12:13        4.26
  5432708              JUNCTION     0.04     0.45  2120.92     0  12:16        0.31
  5432808              JUNCTION     0.02     0.02  2143.89     1  10:33        0.02
  5450408              JUNCTION     3.05    14.00  1877.87     0  12:13       10.41
  5450915              JUNCTION     2.33    10.19  1875.16     0  12:13        7.54
  5451015              JUNCTION     1.49    11.92  1878.01     0  12:13        6.59
  5451115              JUNCTION     0.93    16.00  1882.87     0  12:13        6.02
  5451212              JUNCTION     0.07     8.55  1878.62     0  12:16        3.00
  5451312              JUNCTION     0.06     0.78  1873.15     0  12:21        0.71
  5451612              JUNCTION     0.08     0.24  1873.11     0  12:21        0.16
  5451712              JUNCTION     0.08     0.09  1874.96     1  11:00        0.09
  5451812              JUNCTION     0.00     0.00  1876.27     0  00:00        0.00
  5452208              JUNCTION     0.00     0.00  2128.00     0  00:00        0.00
  5452312              JUNCTION     0.00     0.35  1874.13     0  12:18        0.31
  5452412              JUNCTION     0.00     0.10  1874.57     0  12:17        0.07
  5452510              JUNCTION     0.00     0.00  1881.02     0  00:00        0.00
  5452610              JUNCTION     0.00     0.00  1881.87     0  00:00        0.00
  5452710              JUNCTION     0.06     0.07  1895.50     1  13:09        0.07
  5452812              JUNCTION     0.00     0.00  1897.18     0  00:00        0.00
  5453010              JUNCTION     0.18     3.44  1913.31     0  12:15        3.44
  5453108              JUNCTION     0.13     9.00  1935.87     0  12:03        9.00
  5453208              JUNCTION     0.02     0.35  1942.76     0  12:15        0.35
  5453308              JUNCTION     0.02     0.30  1958.17     0  12:15        0.30
  5453408              JUNCTION     0.17     6.99  1945.36     0  12:12        6.99
  5453508              JUNCTION     0.00     0.00  1954.09     0  00:00        0.00
  5453612              JUNCTION     0.42     7.00  1945.39     0  11:58        7.00
  5453708              JUNCTION     0.16     6.35  1945.55     0  11:58        6.20
  5453808              JUNCTION     0.09     4.22  1946.17     0  11:58        3.46
  5453908              JUNCTION     0.05     0.06  1948.32     1  10:04        0.06
  5454010              JUNCTION     0.00     0.00  1948.74     0  00:00        0.00
  5454110              JUNCTION     0.00     0.00  1949.20     0  00:00        0.00
  5454208              JUNCTION     0.06     0.31  1971.74     0  12:15        0.20
  5454308              JUNCTION     0.00     0.00  1972.73     0  00:00        0.00
  5454408              JUNCTION     0.07    15.08  1998.42     0  12:15       14.87
  5455218              JUNCTION     0.23     0.27  1870.32     1  14:00        0.27
  5455316              JUNCTION     0.19     0.22  1874.68     1  14:00        0.22
  5455416              JUNCTION     0.14     0.17  1885.67     1  13:15        0.17
  5455514              JUNCTION     0.15     0.17  1894.74     1  13:03        0.17
  5455810              JUNCTION     0.18     7.27  1882.85     0  12:14        5.89
  5455910              JUNCTION     0.03     2.19  1883.27     0  12:14        1.37
  5456010              JUNCTION     0.05     3.19  1889.36     0  12:15        1.20
  5456110              JUNCTION     0.05     4.72  1895.78     0  12:15        0.82
  5456210              JUNCTION     0.00     0.00  1895.24     0  12:15        0.00
  5456310              JUNCTION     0.00     0.00  1899.19     0  00:00        0.00
  5456406              JUNCTION     0.00     0.00  1901.00     0  00:00        0.00
  5456518              JUNCTION     0.10     0.11  1879.78     1  13:45        0.11
  5456618              JUNCTION     0.11     0.12  1892.85     1  13:41        0.12
  5456715              JUNCTION     0.11     0.11  1895.20     1  13:40        0.11
  5456810              JUNCTION     0.12     0.13  1900.45     1  13:37        0.13
  5456910              JUNCTION     0.07     0.08  1903.63     1  13:36        0.08
  5457010              JUNCTION     0.08     0.09  1904.46     1  13:22        0.09
  5457108              JUNCTION     0.07     0.08  1907.75     1  13:59        0.08
  5457208              JUNCTION     0.00     0.00  1909.28     0  00:00        0.00
  5457308              JUNCTION     0.00     0.00  1910.63     0  00:00        0.00
  5457421              JUNCTION     0.08     0.45  1905.04     0  12:15        0.45
  5457521              JUNCTION     0.11     0.70  1905.57     0  12:14        0.70
  5457610              JUNCTION     0.11     3.69  1915.56     0  12:03        3.27
  5457710              JUNCTION     0.16     7.50  1924.37     0  12:09        7.50
  5457810              JUNCTION     0.20     9.00  1927.87     0  12:02        9.00
  5457908              JUNCTION     0.23    12.53  1932.87     0  12:02       12.53
  5458010              JUNCTION     0.15     9.00  1938.87     0  12:02        9.00
  5458110              JUNCTION     0.09     5.43  1950.30     0  12:05        5.36
  5458210              JUNCTION     0.15     7.00  1953.87     0  12:05        7.00
  5458310              JUNCTION     0.11    11.10  1961.87     0  12:11       11.10
  5458408              JUNCTION     0.04    10.90  1963.37     0  12:07        9.40
  5458508              JUNCTION     0.03     9.00  1962.87     0  12:09        8.00
  5458610              JUNCTION     0.05     8.30  1940.17     0  12:08        4.52
  5458708              JUNCTION     0.00     0.62  1936.49     0  12:16        0.55
  5459008              JUNCTION     0.14    11.61  1942.52     0  12:02       10.95
  5459108              JUNCTION     0.10    12.85  1944.80     0  12:02        9.93
  5459208              JUNCTION     0.03     9.00  1950.87     0  12:04        4.01
  5459318              JUNCTION     0.07     0.53  1912.90     0  12:15        0.53
  5459408              JUNCTION     0.08     0.54  1938.41     0  12:19        0.53
  5459508              JUNCTION     0.09    10.00  1970.87     0  12:06       10.00
  5459608              JUNCTION     0.00     0.34  1970.91     0  12:12        0.30
  5459710              JUNCTION     0.12     5.10  1930.67     0  12:15        5.02
  5459810              JUNCTION     0.06     0.56  1935.43     0  12:15        0.55
  5459910              JUNCTION     0.00     0.00  1937.87     0  00:00        0.00
  5460008              JUNCTION     0.00     0.00  1951.87     0  00:00        0.00
  5460108              JUNCTION     0.00     0.00  1953.87     0  00:00        0.00
  5460210              JUNCTION     0.41     7.00  1938.37     0  11:57        7.00
  5460310              JUNCTION     0.42     9.00  1948.37     0  12:03        9.00
  5460410              JUNCTION     0.19     0.22  1951.09     1  13:54        0.22
  5460510              JUNCTION     0.30     0.36  1953.43     1  13:56        0.36
  5460610              JUNCTION     0.26     0.30  1956.57     1  13:57        0.30
  5460710              JUNCTION     0.35     0.43  1957.91     1  13:57        0.43
  5460810              JUNCTION     0.24     0.28  1960.35     1  13:28        0.28
  5460910              JUNCTION     0.00     0.00  1962.47     0  00:00        0.00
  5461208              JUNCTION     0.17    14.08  1945.30     0  11:59        7.96
  5461308              JUNCTION     0.01     3.20  1941.29     0  12:08        1.07
  5461410              JUNCTION     0.39     7.50  1938.87     0  11:56        7.50
  5461510              JUNCTION     0.17     5.59  1942.78     0  12:04        1.70
  5461610              JUNCTION     0.08     0.08  1958.81     1  13:42        0.08
  5461710              JUNCTION     0.00     0.00  1988.93     0  00:00        0.00
  5461812              JUNCTION     0.00     0.00  2000.98     0  00:00        0.00
  5461812_1            JUNCTION     0.00     0.00  2012.90     0  00:00        0.00
  5461908              JUNCTION     0.00     0.00  2031.85     0  00:00        0.00
  5462008              JUNCTION     0.00     0.00  2040.65     0  00:00        0.00
  5462112              JUNCTION     0.21     7.70  1979.09     0  12:17        7.68
  5462212              JUNCTION     0.24     9.02  1986.97     0  12:17        9.01
  5462312              JUNCTION     0.23    10.30  1994.87     0  12:08       10.30
  5462410              JUNCTION     0.13     0.48  2023.13     0  12:15        0.48
  5462508              JUNCTION     0.13    10.18  2061.83     0  12:14       10.02
  5462608              JUNCTION     0.11     8.63  2064.87     0  12:14        8.63
  5462708              JUNCTION     0.09     0.52  2085.76     0  12:15        0.51
  5462808              JUNCTION     0.06     0.07  2101.57     1  10:24        0.07
  5462908              JUNCTION     0.00     0.00  2114.87     0  00:00        0.00
  5463008              JUNCTION     0.00     0.00  2134.87     0  00:00        0.00
  5463108              JUNCTION     0.00     0.00  2141.37     0  00:00        0.00
  5463208              JUNCTION     0.00     0.00  2143.87     0  00:00        0.00
  5463508              JUNCTION     0.05     0.41  1983.58     0  12:15        0.39
  5463608              JUNCTION     0.05     0.39  1995.36     0  12:15        0.39
  5463708              JUNCTION     0.06     0.08  1995.45     1  11:00        0.08
  5463808              JUNCTION     0.02     0.03  2022.40     1  11:00        0.03
  5463908              JUNCTION     0.02     0.02  2030.83     1  11:00        0.02
  5464008              JUNCTION     0.04     0.04  2031.91     1  11:00        0.04
  5464108              JUNCTION     0.00     0.00  2032.87     0  00:00        0.00
  5464208              JUNCTION     0.05     0.27  1991.54     0  12:15        0.27
  5464308              JUNCTION     0.05     0.26  2016.13     0  12:15        0.26
  5464408              JUNCTION     0.00     0.00  2024.37     0  00:00        0.00
  5465008              JUNCTION     0.14     8.50  2058.37     0  12:03        8.50
  5465308              JUNCTION     0.03     5.10  2063.47     0  12:08        2.52
  5465712              JUNCTION     0.02     0.03  2029.90     1  10:31        0.03
  5466618              JUNCTION     0.08     0.09  1890.66     1  13:42        0.09
  5466708              JUNCTION     0.09     2.43  1980.06     0  12:15        2.23
  5468308              JUNCTION     0.00     0.97  1872.99     0  12:18        0.88
  5470108              JUNCTION     0.04     5.87  1874.94     0  12:14        3.37
  5470208              JUNCTION     0.00     3.12  1875.06     0  12:15        0.47
  5470908              JUNCTION     0.00     0.00  1881.45     0  00:00        0.00
  5471008              JUNCTION     0.00     0.00  1885.57     0  00:00        0.00
  5471410              JUNCTION     0.00     0.00  1886.17     0  00:00        0.00
  5471808              JUNCTION     0.00     0.00  1912.94     0  00:00        0.00
  5472008              JUNCTION     0.00     0.00  1925.47     0  00:00        0.00
  5472108              JUNCTION     0.00     0.00  1933.87     0  00:00        0.00
  5472708              JUNCTION     0.00     0.00  1946.87     0  00:00        0.00
  5472810              JUNCTION     0.32     8.00  1939.87     0  11:56        7.20
  5472908              JUNCTION     0.08     0.19  1969.06     0  12:15        0.19
  5473008              JUNCTION     0.01     0.30  1970.17     0  12:15        0.30
  5473108              JUNCTION     0.01     0.17  2007.04     0  12:15        0.16
  5473208              JUNCTION     0.01     0.23  2010.10     0  12:15        0.23
  5473308              JUNCTION     0.00     0.00  2037.87     0  00:00        0.00
  5473412              JUNCTION     0.08     0.10  1940.97     0  12:04        0.10
  5473510              JUNCTION     0.04     0.05  1961.92     1  13:42        0.05
  5473610              JUNCTION     0.00     0.00  1975.87     0  00:00        0.00
  5473808              JUNCTION     0.00     0.00  1962.28     0  00:00        0.00
  5473908              JUNCTION     0.00     0.00  1960.65     0  00:00        0.00
  5474008              JUNCTION     0.00     0.00  1969.12     0  00:00        0.00
  5474108              JUNCTION     0.08    10.43  2063.30     0  12:14       10.15
  5474208              JUNCTION     0.07     8.18  2062.25     0  12:12        7.20
  5474308              JUNCTION     0.06     5.70  2060.87     0  12:14        4.36
  5474408              JUNCTION     0.05     5.89  2063.36     0  12:15        0.60
  5474508              JUNCTION     0.00     6.31  2064.78     0  12:17        0.20
  5474608              JUNCTION     0.07     0.08  2091.25     1  10:22        0.08
  5474708              JUNCTION     0.06     0.06  2092.78     1  10:17        0.06
  5474808              JUNCTION     0.00     0.00  2096.33     0  00:00        0.00
  5474908              JUNCTION     0.00     0.00  2022.67     0  00:00        0.00
  5475408              JUNCTION     0.01     0.18  1986.05     0  12:15        0.18
  5475510              JUNCTION     0.00     0.00  2007.16     0  00:00        0.00
  5TH&BCTI_J1          JUNCTION     0.48     5.02  1921.02     0  11:59        5.01
  5TH&BCTI_J3          JUNCTION     0.85     7.53  1918.93     0  11:59        7.50
  600142               JUNCTION     2.24     2.39  1850.19     0  12:15        2.39
  600530               JUNCTION     9.85    14.72  1869.87     0  12:12       14.72
  600630               JUNCTION     9.32    14.10  1870.64     0  12:12       13.72
  600730               JUNCTION     8.60    14.72  1872.39     0  12:12       12.66
  600830               JUNCTION     8.65    12.26  1870.51     1  03:53       11.77
  600930               JUNCTION     9.03    11.00  1869.60     0  12:12       11.00
  601030               JUNCTION     9.25    11.84  1871.47     0  12:12       11.57
  601130               JUNCTION     9.42    12.69  1873.62     0  12:12       12.11
  601230               JUNCTION     9.70    13.53  1875.72     0  12:12       12.71
  601330               JUNCTION     9.93    13.96  1877.14     0  12:12       13.05
  601530               JUNCTION     0.00     0.00  1858.47     0  00:00        0.00
  601536               JUNCTION     9.14    11.87  1870.05     1  03:53       11.56
  MH3                  JUNCTION     3.71     5.00  1841.20     0  12:00        5.00
  MH4                  JUNCTION    12.91    21.00  1871.96     0  12:12       21.00
  MH5                  JUNCTION     2.38     2.75  1852.42     1  11:32        2.68
  MH7                  JUNCTION    14.36    25.00  1869.90     0  12:52       25.00
  MH8                  JUNCTION    11.82    25.00  1868.87     0  22:11       22.11
  REG-025              JUNCTION     2.07    10.95  1788.87     0  06:02       10.95
  25OF7                OUTFALL      1.01     1.67  1722.54     1  06:45        1.67
  26_OF_MH             OUTFALL      1.62     2.25  1734.25     1  09:55        2.19
  501060               OUTFALL      1.69     1.80  1846.42     0  18:44        1.80
  26DETTANK1           STORAGE      0.65     1.83  1873.70     0  15:03        1.83
  26DETTANK2           STORAGE      0.21     1.12  1877.99     0  13:43        1.12
  26DETTANK3           STORAGE      0.02     0.41  1909.28     0  12:23        0.41
  26DETTANK4           STORAGE      0.08     0.78  1977.65     0  12:59        0.78
  26DETTANK5           STORAGE      0.10     0.83  1902.70     0  13:04        0.83
  26DETTANK6           STORAGE      0.94     2.25  1934.12     0  15:31        2.25
  26DETTANK7           STORAGE      0.00     0.12  2056.99     0  12:18        0.09
  26DETTANK8           STORAGE      1.56     3.72  1860.59     2  00:00        3.72
  26PUMP_SUMP          STORAGE     26.25    35.00  1854.00     0  12:01       35.00
  
  
  *******************
  Node Inflow Summary
  *******************
  
  -------------------------------------------------------------------------------------------------
                                  Maximum  Maximum                  Lateral       Total        Flow
                                  Lateral    Total  Time of Max      Inflow      Inflow     Balance
                                   Inflow   Inflow   Occurrence      Volume      Volume       Error
  Node                 Type           CFS      CFS  days hr:min    10^6 gal    10^6 gal     Percent
  -------------------------------------------------------------------------------------------------
  0600242CD&MH6        JUNCTION      0.00    54.25     0  21:54           0        57.6       0.016
  0600466ND            JUNCTION      5.21   215.99     0  12:16        0.18        49.6       0.123
  25OF1                JUNCTION      0.00   143.53     1  18:17           0        32.6     -14.819
  25OF2                JUNCTION      0.00    81.29     1  21:41           0        38.3      -5.081
  25OF3                JUNCTION      0.00    77.33     1  10:19           0        37.5      -1.956
  25OF4                JUNCTION      0.00    63.09     1  10:19           0        38.2      -1.526
  25OF5                JUNCTION      0.00    58.88     1  19:48           0        37.7      -0.671
  25OF6                JUNCTION      0.00    58.80     0  22:29           0        37.8      -0.614
  26CTIRLF_J1          JUNCTION      0.00  6635.11     0  21:53           0         337     -46.391
  26CTIRLF_J2          JUNCTION      0.00  4852.98     0  18:18           0         264     -36.398
  26CTI_J1             JUNCTION      0.00  7866.62     0  21:58           0         454     -39.431
  26CTI_J2             JUNCTION      0.00  6187.61     0  21:53           0         393     -35.555
  26FCDS_J1            JUNCTION      0.00 40962.19     1  07:07           0    2.67e+03     -53.699
  26FCDS_J2            JUNCTION      0.00 23049.27     1  18:50           0    1.46e+03     -33.800
  26FCDS_J3            JUNCTION      0.00 41133.04     1  07:39           0    2.99e+03     -41.232
  26FCDS_J4            JUNCTION      0.00 41228.91     1  07:51           0    2.41e+03     -39.165
  26FCUS_J1            JUNCTION      0.00 20528.09     1  13:00           0    3.42e+03     -35.341
  26FCUS_J2            JUNCTION      0.00  3760.48     1  16:54           0    1.19e+03     -45.016
  26FCUS_J3            JUNCTION      0.00 22213.55     1  18:18           0    2.86e+03     -41.018
  26FCUS_J4            JUNCTION      0.00 21083.26     0  17:51           0    1.95e+03     -37.872
  26FWUS_J1            JUNCTION      0.00  3510.76     0  12:00           0    1.69e+03       0.018
  26FWUS_J2            JUNCTION      0.00  3762.67     0  11:59           0     1.7e+03       0.020
  26FWUS_J3            JUNCTION      0.00  5316.53     0  11:59           0    1.66e+03       0.026
  26FWUS_J4            JUNCTION      0.00  5297.85     1  15:26           0    1.77e+03      -4.030
  26RLF_J1             JUNCTION      0.00  6181.37     0  13:48           0    1.47e+03      -1.363
  26SUMPDS_J1          JUNCTION      0.00   842.36     0  12:04           0       0.162     -99.472
  26SUMPDS_J2          JUNCTION      0.00 63629.95     0  12:00           0        3.77     -89.376
  26SUMPDS_J3          JUNCTION      0.00 54603.11     0  12:00           0        3.08     -90.901
  26SUMPDS_J4          JUNCTION      0.00 63733.09     1  22:07           0         125     -43.411
  26SUMP_J1            JUNCTION      0.00  2270.49     0  11:59           0       0.455     131.120
  26SUMP_J2            JUNCTION      0.00 61588.82     0  12:01           0        3.34     -34.069
  26SUMP_J3            JUNCTION      0.00  4350.03     0  12:01           0        1.09     -67.693
  26SUMP_J4            JUNCTION      0.00 61813.35     1  22:07           0    1.88e+03       8.760
  4302108              JUNCTION      0.00   389.74     1  18:19           0          23     -45.801
  4302221              JUNCTION      0.34    18.11     0  12:05       0.276        1.51      -3.030
  4302321              JUNCTION      4.64    14.23     0  12:22       0.103       0.325       0.794
  4302521              JUNCTION      0.00     4.93     0  12:15           0       0.179       0.015
  4302612              JUNCTION      0.00     4.93     0  12:15           0       0.179       0.000
  4302812              JUNCTION      0.00     4.93     0  12:15           0       0.179       0.000
  4303012              JUNCTION      0.00     4.94     0  12:15           0       0.179       0.000
  4303112              JUNCTION      0.00     4.94     0  12:15           0       0.179       0.000
  4303212              JUNCTION      0.00     4.94     0  12:15           0       0.179       0.000
  4303312              JUNCTION      0.00     4.94     0  12:15           0       0.179       0.000
  4303412              JUNCTION      0.00     4.94     0  12:15           0       0.179      -0.013
  4303512              JUNCTION      5.55     5.55     0  12:15       0.179        0.18       0.003
  4303612              JUNCTION      0.00     0.61     0  12:15           0    0.000769       1.202
  4303710              JUNCTION      0.00     0.00     0  00:00           0           0       0.000 gal
  4303810              JUNCTION      0.00     0.00     0  00:00           0           0       0.000 gal
  4312208              JUNCTION      0.00     0.00     0  00:00           0           0       0.000 gal
  4312330              JUNCTION      0.00     0.00     0  00:00           0           0       0.000 gal
  4313210CD            JUNCTION      0.00     1.07     0  07:23           0      0.0393       0.000
  4313524              JUNCTION      0.00   213.76     1  14:29           0        8.75     -37.718
  4313524CD            JUNCTION      0.00     1.24     1  00:44           0       0.246     -34.789
  500260               JUNCTION      0.00    50.64     1  03:09           0        58.1       0.049
  500354               JUNCTION      0.00     2.34     0  18:40           0      0.0982       6.749
  5401366              JUNCTION      0.00   163.51     0  12:16           0        28.4      -2.469
  5401463              JUNCTION      0.04   199.92     0  12:12      0.0338        18.4       1.667
  5401563              JUNCTION      0.00   235.55     0  12:12           0        17.7       1.333
  5401663              JUNCTION      0.03   213.38     0  12:12      0.0257        18.3       0.477
  5401763              JUNCTION      0.21   184.16     0  12:12       0.198        17.6       0.207
  5401863              JUNCTION     16.78   169.51     0  12:12       0.928        22.8       0.168
  5401954              JUNCTION      8.76   133.25     0  12:16       0.266        15.9      -1.120
  5402054              JUNCTION      0.00    82.44     0  12:13           0        6.92       0.192
  5402142              JUNCTION      0.04    63.08     0  12:17      0.0406        6.25       0.005
  5402239              JUNCTION      0.00    59.23     0  12:16           0        6.12       0.009
  5402339              JUNCTION      0.00    59.22     0  12:16           0        6.12       0.007
  5402433              JUNCTION      0.00    59.21     0  12:16           0        6.12       0.005
  5402554              JUNCTION      0.09    59.22     0  12:16      0.0918        6.12       0.012
  5402654              JUNCTION      0.00    59.17     0  12:15           0        6.03       0.017
  5402754              JUNCTION      0.00    59.28     0  12:15           0        6.03       0.025
  5402854              JUNCTION      0.00    30.12     0  12:15           0       0.322       0.001
  5402954              JUNCTION      0.00    30.12     0  12:16           0       0.322      -0.025
  5403054              JUNCTION      0.00    32.17     0  12:15           0       0.323      -0.010
  5403154              JUNCTION      0.75    32.26     0  12:15      0.0145       0.323      -0.000
  5403254              JUNCTION      0.00    31.96     0  12:15           0       0.309       0.002
  5403354              JUNCTION      0.00    24.85     0  12:15           0        1.23       0.004
  5403424              JUNCTION      0.00    19.97     0  12:18           0       0.859       0.013
  5403524              JUNCTION      0.01    18.58     0  12:15      0.0115       0.808       0.016
  5403618              JUNCTION      2.62    18.57     0  12:15      0.0776       0.796       0.011
  5403715              JUNCTION      0.00    15.98     0  12:19           0       0.719       0.009
  5403815              JUNCTION      0.03    15.98     0  12:19      0.0371       0.719       0.001
  5403915              JUNCTION      3.71    19.42     0  12:15      0.0819       0.693       0.005
  5404015              JUNCTION      0.00    10.91     0  12:15           0       0.432      -0.003
  5404115              JUNCTION      0.00    10.91     0  12:15           0       0.432      -0.009
  5404215              JUNCTION      0.00    10.91     0  12:15           0       0.432       0.002
  5404318              JUNCTION      0.00    10.92     0  12:15           0       0.432      -0.000
  5404418              JUNCTION      6.06    10.92     0  12:15       0.167       0.432       0.014
  5404515              JUNCTION      0.00     3.93     0  12:05           0       0.159      -0.003
  5404615              JUNCTION      0.00     5.28     0  12:10           0       0.176       0.005
  5404715              JUNCTION      4.83     6.72     0  12:15       0.103        0.18       0.013
  5405910              JUNCTION      0.00     2.87     0  12:16           0        1.59       0.005
  5407024              JUNCTION      8.20    27.92     0  12:15       0.419        1.28       0.004
  5413854              JUNCTION      0.27   121.70     0  12:16        0.28        14.8      -0.095
  5417212CD            JUNCTION      0.00   166.17     0  12:14           0         1.5       2.809
  5417312CD            JUNCTION      0.00   190.76     0  12:12           0        1.23      -0.471
  5417412CD            JUNCTION      0.00    20.29     0  12:15           0           1      -0.573
  5417512CD            JUNCTION      0.00    44.32     1  07:28           0       0.973       1.255
  5420420              JUNCTION      0.00    60.47     0  21:52           0        4.83       2.506
  5420521              JUNCTION      0.00    16.81     0  12:12           0        2.87       1.514
  5420621              JUNCTION      0.00    15.51     0  12:16           0        2.89       0.356
  5420718              JUNCTION      0.02    16.07     0  12:12      0.0227        2.96      -1.757
  5420821              JUNCTION      3.13    12.14     0  12:16        0.16        1.63      -0.241
  5420921              JUNCTION      6.00     9.38     0  12:16       0.238       0.452      -0.000
  5421021              JUNCTION      0.00     3.59     0  12:17           0       0.193       0.064
  5421121              JUNCTION      0.00     3.45     0  12:17           0       0.193       0.013
  5421221              JUNCTION      0.06     3.45     0  12:17      0.0665       0.193       0.017
  5421321              JUNCTION      0.00     3.43     0  12:16           0       0.127       0.078
  5421418              JUNCTION      0.03     3.48     0  12:15      0.0346       0.127       0.057
  5421518              JUNCTION      2.78     3.60     0  12:15      0.0512      0.0924       0.089
  5421615              JUNCTION      2.33    21.71     0  12:15      0.0416        2.38       0.012
  5421715              JUNCTION      6.55    18.18     0  12:15       0.239        2.04       0.010
  5421815              JUNCTION      3.91    14.01     0  11:58       0.125         1.8       0.011
  5421915              JUNCTION      0.00    16.93     0  12:15           0        1.68       0.141
  5422015              JUNCTION      6.19    16.98     0  12:15        0.17        1.64       0.015
  5422115              JUNCTION      1.99    38.16     0  12:15      0.0583        1.63       0.006
  5422215              JUNCTION      2.86     7.74     0  12:15      0.0688       0.165      -0.117
  5422308              JUNCTION      2.53     2.53     0  12:15      0.0532      0.0532       0.037
  5422408              JUNCTION      0.00     0.00     0  00:00           0           0       0.000 gal
  5422508              JUNCTION      0.00     0.00     0  00:00           0           0       0.000 gal
  5422615              JUNCTION      0.91     0.91     0  12:15       0.441       0.441       0.001
  5422712              JUNCTION      0.90    12.19     1  07:28      0.0201       0.925      -3.344
  5422812              JUNCTION      1.27     4.85     0  12:12      0.0331       0.913       0.095
  5422912              JUNCTION      0.81     3.73     0  12:12      0.0175        0.84      -0.904
  5423012              JUNCTION      3.20     3.36     0  12:41       0.508       0.792       0.009
  5423112              JUNCTION      0.00     1.77     0  20:57           0       0.284       0.051
  5423212              JUNCTION      0.00     1.14     0  12:15           0       0.283       0.031
  5423312              JUNCTION      0.00     1.61     0  12:09           0       0.292       0.053
  5423412              JUNCTION      0.00     1.79     0  12:10           0       0.291       0.024
  5423510              JUNCTION      0.00     2.08     0  12:15           0       0.293       0.079
  5423610              JUNCTION      0.00     2.11     0  12:15           0       0.293       0.030
  5423710              JUNCTION      0.02     2.11     0  12:15      0.0272       0.293       0.017
  5423810              JUNCTION      0.00     2.09     0  12:15           0       0.266       0.081
  5424010              JUNCTION      2.09     2.09     0  12:15       0.267       0.267       0.035
  5424518              JUNCTION      0.03    33.88     0  12:13      0.0298        11.2       0.080
  5424618              JUNCTION      0.00     0.41     1  14:00           0        0.39       0.071
  5424718              JUNCTION      0.00     9.42     0  12:16           0       0.619      -0.110
  5424818              JUNCTION      0.00    10.94     0  12:13           0       0.618      -0.049
  5424918              JUNCTION     11.88    12.08     0  12:16       0.539       0.702       0.010
  5425018              JUNCTION      0.00     2.57     0  12:14           0    0.000902      -1.221
  5425118              JUNCTION      0.00     1.40     0  12:14           0    0.000273      -0.708
  5425324              JUNCTION      5.46    33.09     0  12:16       0.242        1.66       0.010
  5425436              JUNCTION      0.00    29.13     0  12:16           0        1.42       0.035
  5425536              JUNCTION      1.76    29.33     0  12:15      0.0312        1.42       0.028
  5425636              JUNCTION      0.00    28.11     0  12:15           0        1.38       0.014
  5425736              JUNCTION     12.38    28.22     0  12:15       0.389        1.38       0.021
  5425815              JUNCTION      0.00    11.18     0  12:15           0       0.708       0.009
  5425918              JUNCTION      0.00    11.19     0  12:15           0       0.708       0.010
  5426021              JUNCTION      0.21    11.21     0  12:15       0.198       0.709       0.024
  5426115              JUNCTION      4.92    11.02     0  12:15       0.115       0.511       0.007
  5426215              JUNCTION      5.24     7.49     0  12:15       0.176         0.4       0.007
  5426310              JUNCTION      4.28     6.91     0  12:15       0.121       0.242       0.003
  5426410              JUNCTION      0.00     3.07     0  12:05           0       0.125       0.005
  5426510              JUNCTION      3.46     4.52     0  12:15      0.0644       0.124      -0.073
  5426608              JUNCTION      3.35     3.35     0  12:15      0.0711      0.0711       0.048
  5426832              JUNCTION      0.00    74.08     0  12:13           0        4.55       0.334
  5426932              JUNCTION      3.24    51.92     0  12:16      0.0756        2.74       0.375
  5427033              JUNCTION      0.00    40.02     0  12:16           0        1.87      -0.050
  5427133              JUNCTION      4.12    39.92     0  12:16       0.147        1.87      -0.006
  5427210              JUNCTION      0.02    20.87     0  12:15      0.0186        2.39       0.012
  5427310              JUNCTION      0.00    20.85     0  12:15           0        2.37       0.004
  5427410              JUNCTION      0.00    20.89     0  12:15           0        2.37       0.009
  5427536              JUNCTION     12.91    26.45     0  12:15       0.741        4.12       0.023
  5427624              JUNCTION      0.00     8.36     0  12:55           0        3.23       0.001
  5427724              JUNCTION      0.00     8.36     0  11:59           0        3.23       0.009
  5427815              JUNCTION      0.00     8.36     0  11:59           0        3.23       0.032
  5427915              JUNCTION      0.00     8.37     0  12:00           0        3.23       0.017
  5428015              JUNCTION      0.01    11.03     0  12:15      0.0108        3.26       0.052
  5428115              JUNCTION      0.21     9.28     0  12:14       0.198        3.19       0.036
  5428215              JUNCTION      2.48     8.12     0  12:15      0.0372        2.13       0.033
  5428315              JUNCTION      5.83     9.98     0  12:15       0.204        2.14       0.031
  5428412              JUNCTION      0.00     5.93     0  11:56           0        1.53       0.020
  5428512              JUNCTION      7.59    13.20     0  12:15       0.227        1.62       0.029
  5428612              JUNCTION      0.00     6.29     0  12:07           0        1.41       0.041
  5428712              JUNCTION      2.91    10.50     0  12:15      0.0745        1.43       0.028
  5428812              JUNCTION      0.03     2.63     0  12:35      0.0386       0.796       0.029
  5428912              JUNCTION      0.00     2.27     0  12:03           0       0.757       0.009
  5429010              JUNCTION      0.00     2.27     0  12:03           0       0.758       0.053
  5429108              JUNCTION      0.01     3.38     0  12:15     0.00629        0.66       0.055
  5429208              JUNCTION      0.00     2.42     0  12:02           0       0.603       0.021
  5429308              JUNCTION      0.01     2.56     0  12:24      0.0101       0.605       0.019
  5429408              JUNCTION      0.00     2.55     0  12:09           0       0.595       0.022
  5429508              JUNCTION      0.00     2.57     0  12:01           0       0.595       0.014
  5429608              JUNCTION      1.43     3.74     0  12:15      0.0542       0.602       0.029
  5429708              JUNCTION      1.97     4.86     0  12:15        0.04       0.567       0.099
  5429808              JUNCTION      3.04     4.79     0  12:15        0.16       0.536       0.044
  5429908              JUNCTION      2.98     2.99     0  12:15       0.346       0.351       0.030
  5430008              JUNCTION      0.00     0.65     0  12:07     0.00378     0.00443      -0.191
  5430108              JUNCTION      0.00     0.00     0  00:00           0           0       0.000 gal
  5430208              JUNCTION      3.81     3.83     0  12:15       0.127       0.158       0.018
  5430308              JUNCTION      0.00     0.03     1  10:08           0      0.0307       0.035
  5430408              JUNCTION      0.03     0.03     1  10:00      0.0307      0.0307       0.017
  5430612              JUNCTION      0.01     1.19     0  12:15      0.0141      0.0518       0.058
  5430706              JUNCTION      1.25     1.25     0  12:15      0.0236      0.0238      -0.044
  5430808              JUNCTION      0.00     0.09     0  12:15           0    0.000164       3.006
  5430908              JUNCTION      0.00     0.00     0  00:00           0           0       0.000 gal
  5431008              JUNCTION      0.00     0.00     0  00:00           0           0       0.000 gal
  5431110              JUNCTION      0.00     0.00     0  00:00           0           0       0.000 gal
  5431208              JUNCTION      0.00     1.16     0  12:10           0    0.000576      -5.060
  5431308              JUNCTION      0.00     0.19     0  12:10           0    1.25e-05      20.489
  5431412              JUNCTION      0.00     5.29     0  12:08           0       0.178      -0.017
  5431512              JUNCTION      5.87     5.87     0  12:15       0.154        0.18       0.010
  5431612              JUNCTION      0.02     2.81     0  12:08      0.0205      0.0274      -0.226
  5431712              JUNCTION      0.00     3.78     0  12:15           0      0.0187      -0.257
  5431808              JUNCTION      0.00     2.95     0  12:08           0      0.0169      -0.054
  5431912              JUNCTION      0.03     1.89     0  12:15      0.0307      0.0777       0.019
  5432008              JUNCTION      0.00     1.87     0  12:15           0       0.047       0.010
  5432108              JUNCTION      0.00     1.91     0  12:15           0       0.047       0.016
  5432208              JUNCTION      1.91     1.91     0  12:15      0.0471      0.0471       0.033
  5432308              JUNCTION      0.00     0.00     0  00:00           0           0       0.000 gal
  5432408              JUNCTION      0.00     0.00     0  00:00           0           0       0.000 gal
  5432510              JUNCTION      0.01     3.55     0  12:18      0.0153       0.106      -0.014
  5432608              JUNCTION      3.94     3.94     0  12:15      0.0768      0.0912      -0.000
  5432708              JUNCTION      0.01     0.53     0  12:15     0.00768      0.0144       0.108
  5432808              JUNCTION      0.01     0.01     1  10:00     0.00639     0.00639       0.046
  5450408              JUNCTION      0.00     1.56     0  12:13           0      0.0115     -26.937
  5450915              JUNCTION      1.79     6.49     0  12:12      0.0867       0.588       0.776
  5451015              JUNCTION      0.00     6.80     0  12:13           0       0.492      -3.645
  5451115              JUNCTION      2.33     5.04     0  12:13      0.0884       0.279      -7.651
  5451212              JUNCTION      0.00     2.67     0  12:16           0      0.0327      -0.215
  5451312              JUNCTION      0.03     1.07     0  12:16      0.0286      0.0293       0.066
  5451612              JUNCTION      0.05     0.87     0  12:13      0.0481      0.0885       0.069
  5451712              JUNCTION      0.04     0.04     1  10:00      0.0402      0.0402       0.150
  5451812              JUNCTION      0.00     0.00     0  00:00           0           0       0.000 gal
  5452208              JUNCTION      0.00     0.00     0  00:00           0           0       0.000 gal
  5452312              JUNCTION      0.00     0.29     0  12:18           0    0.000328       0.718
  5452412              JUNCTION      0.00     0.58     0  12:16           0     0.00027      32.687
  5452510              JUNCTION      0.00     0.00     0  00:00           0           0       0.000 gal
  5452610              JUNCTION      0.00     0.00     0  00:00           0           0       0.000 gal
  5452710              JUNCTION      0.03     0.03     1  13:00      0.0372      0.0372       0.100
  5452812              JUNCTION      0.00     0.00     0  00:00           0           0       0.000 gal
  5453010              JUNCTION      1.68     4.57     0  12:15      0.0384        0.31       0.030
  5453108              JUNCTION      3.85     5.34     0  12:15       0.136       0.163       0.010
  5453208              JUNCTION      0.00     1.50     0  12:15           0      0.0274       0.001
  5453308              JUNCTION      1.50     1.50     0  12:15      0.0274      0.0274      -0.000
  5453408              JUNCTION      0.00     1.06     0  11:50           0       0.105      -0.014
  5453508              JUNCTION      0.00     0.00     0  00:00           0           0       0.000 gal
  5453612              JUNCTION      5.33     5.37     0  12:15       0.112       0.173       0.117
  5453708              JUNCTION      0.00     0.95     0  11:57           0      0.0349       0.046
  5453808              JUNCTION      0.00     0.77     0  11:58           0      0.0345       0.006
  5453908              JUNCTION      0.04     0.04     1  10:00      0.0343      0.0343       0.039
  5454010              JUNCTION      0.00     0.00     0  00:00           0           0       0.000 gal
  5454110              JUNCTION      0.00     0.00     0  00:00           0           0       0.000 gal
  5454208              JUNCTION      0.04     0.29     0  12:15      0.0419       0.042       0.033
  5454308              JUNCTION      0.00     0.00     0  00:00           0           0       0.000 gal
  5454408              JUNCTION      4.67     4.67     0  12:15       0.109       0.109      -0.001
  5455218              JUNCTION      0.04     0.41     1  13:59      0.0392        0.39       0.156
  5455316              JUNCTION      0.00     0.37     1  13:15           0       0.352       0.137
  5455416              JUNCTION      0.03     0.37     1  13:04      0.0284       0.352       0.072
  5455514              JUNCTION      0.34     0.34     1  13:00       0.323       0.323       0.034
  5455810              JUNCTION      0.00    36.42     0  12:16           0        1.72      -0.014
  5455910              JUNCTION      0.00     3.39     0  12:14           0      0.0682      -0.178
  5456010              JUNCTION      0.00     2.91     0  12:15           0      0.0682       0.034
  5456110              JUNCTION      2.97     2.97     0  12:15      0.0682      0.0682       0.009
  5456210              JUNCTION      0.00     0.03     0  12:15           0    1.26e-06       0.343 gal
  5456310              JUNCTION      0.00     0.00     0  00:00           0           0       0.000 gal
  5456406              JUNCTION      0.00     0.00     0  00:00           0           0       0.000 gal
  5456518              JUNCTION      0.00     0.15     1  13:42           0       0.162       0.064
  5456618              JUNCTION      0.02     0.15     1  13:40      0.0203       0.162       0.039
  5456715              JUNCTION      0.00     0.13     1  13:38           0       0.142       0.062
  5456810              JUNCTION      0.09     0.13     1  13:36       0.107       0.142       0.081
  5456910              JUNCTION      0.00     0.04     1  13:26           0      0.0351       0.126
  5457010              JUNCTION      0.00     0.04     1  13:57           0      0.0351       0.127
  5457108              JUNCTION      0.04     0.04     1  13:00      0.0352      0.0352       0.117
  5457208              JUNCTION      0.00     0.00     0  00:00           0           0       0.000 gal
  5457308              JUNCTION      0.00     0.00     0  00:00           0           0       0.000 gal
  5457421              JUNCTION      0.00     4.63     0  12:10           0       0.274       0.002
  5457521              JUNCTION      0.00     4.63     0  12:14           0       0.274       0.009
  5457610              JUNCTION      0.01     4.76     0  12:03     0.00947       0.274       0.006
  5457710              JUNCTION      1.98     4.81     0  12:15      0.0506       0.265       0.001
  5457810              JUNCTION      0.00     3.79     0  12:29           0       0.218      -0.002
  5457908              JUNCTION      4.58     7.46     0  12:15       0.106       0.244      -0.002
  5458010              JUNCTION      0.00     3.71     0  12:15           0       0.143      -0.022
  5458110              JUNCTION      1.61     3.71     0  12:15       0.028       0.143      -0.003
  5458210              JUNCTION      0.01     4.19     0  12:13      0.0108       0.123       0.007
  5458310              JUNCTION      4.91     4.91     0  12:15       0.113       0.114      -0.012
  5458408              JUNCTION      0.00     1.12     0  12:07           0     0.00177      -2.474
  5458508              JUNCTION      0.00     0.87     0  12:09           0    0.000444      -3.217
  5458610              JUNCTION      0.01     1.06     0  12:08     0.00812      0.0102      -0.038
  5458708              JUNCTION      0.00     0.25     0  12:12           0    0.000428       0.726
  5459008              JUNCTION      0.00     0.68     0  12:02     0.00406     0.00583      -0.314
  5459108              JUNCTION      0.00     0.68     0  12:02           0    0.000438      -1.383
  5459208              JUNCTION      0.00     0.89     0  12:04           0    0.000448      -3.848
  5459318              JUNCTION      0.07     5.19     0  12:15      0.0887        0.27       0.017
  5459408              JUNCTION      0.05     3.51     0  12:18      0.0583       0.171       0.013
  5459508              JUNCTION      5.10     5.16     0  12:15       0.117       0.117      -0.012
  5459608              JUNCTION      0.00     0.15     0  12:08           0     0.00031       1.352
  5459710              JUNCTION      0.00     2.38     0  12:15           0      0.0718       0.027
  5459810              JUNCTION      2.49     2.49     0  12:15      0.0715      0.0715       0.014
  5459910              JUNCTION      0.00     0.00     0  00:00           0           0       0.000 gal
  5460008              JUNCTION      0.00     0.00     0  00:00           0           0       0.000 gal
  5460108              JUNCTION      0.00     0.00     0  00:00           0           0       0.000 gal
  5460210              JUNCTION      0.00     4.06     0  12:05           0       0.902       0.017
  5460310              JUNCTION      8.01     8.58     0  12:15       0.342       0.941       0.021
  5460410              JUNCTION      0.04     0.61     1  13:56      0.0535       0.599       0.039
  5460510              JUNCTION      0.00     0.57     1  13:47           0       0.546       0.080
  5460610              JUNCTION      0.01     0.57     1  13:55     0.00541       0.546       0.051
  5460710              JUNCTION      0.00     0.56     1  13:27           0       0.541       0.061
  5460810              JUNCTION      0.56     0.56     1  13:00       0.541       0.541       0.040
[...]
  25FCSET                    39.51     39.63     47.67      0.01        25.93
  25OF1P                      7.22     10.56     13.02      0.03         4.49
  25OF2P                     12.00     12.98     18.42      0.01         0.01
  25OF3P                     18.38     18.38     23.27      0.01         0.01
  25OF4P                     22.82     23.11     24.76      0.01        21.28
  25OF5P                     24.45     24.47     26.08     20.06        23.85
  25OF6P                      0.01     25.82      0.01     26.04         0.01
  26CTIRLF_1                  6.92     24.72     15.24      0.01         3.12
  26CTIRLF_2                 35.59     35.62     35.80      5.24        19.23
  26CTIRLF_3                 35.60     35.80     35.62     21.38        30.98
  26CTIRLF_4                 27.07     35.62     27.39      5.52        13.73
  26CTI_1                    29.71     31.74     33.06      6.94        12.82
  26CTI_2                    29.00     29.45     35.04      0.70        19.44
  26CTI_3                     0.01     36.01      0.01      0.01         0.01
  26DETTANKOR_1              22.63     22.79     36.21      0.01        10.41
  26DETTANKOR_2               1.13     11.40      1.26      0.01         0.01
  26DETTANKOR_3               0.86      0.86     14.67      0.01         0.01
  26DETTANKOR_4               5.29      5.29      8.68      0.01         0.01
  26DETTANKOR_5               6.08      6.12      9.06      0.01         0.01
  26DETTANKOR_6              24.64     28.22     39.18      0.01        21.98
  26DETTANKOR_7               0.01      0.01      0.26      0.01         0.01
  26DETTANKOR_8              35.18     35.18     35.80      0.01         0.01
  26FC_1                     14.36     18.29     31.14      0.17        10.30
  26FC_2                     16.11     16.77     32.17      0.01         0.50
  26FC_3                     15.63     21.87     28.71      0.51         7.52
  26FC_4                     18.57     26.56     27.53      0.03         5.24
  26FW_1                     36.00     36.00     36.00      0.01         0.01
  26FW_2                     35.98     35.98     36.00      0.01         0.01
  26FW_3                     35.99     35.99     36.00      0.01         0.01
  26FW_4                      7.56      8.08     33.27      0.01         0.12
  26RLF_1                    34.30     35.07     34.98      0.53        32.90
  26SUMPDRAIN_1              36.00     36.00     36.01     35.96         0.02
  26SUMPDRAIN_2              36.00     36.00     36.01     35.98         0.01
  26SUMPDRAIN_3              36.00     36.00     36.01     35.99         0.02
  26SUMPDRAIN_4              33.43     33.43     36.01     23.08         0.01
  26SUMP_1                    0.01      0.01     35.98      0.01         0.01
  26SUMP_2                    0.01      0.02     35.98      0.01         0.01
  26SUMP_3                    0.01      0.01     35.98      0.01         0.01
  26SUMP_4                    0.03      2.32     27.69      0.73         0.01
  43021P                     47.39     47.39     47.94      0.01         0.36
  43022P                      0.08      0.09     18.16      0.01         0.01
  43023P                      0.01      0.01      0.20      0.01         0.01
  43034P                      0.01      0.23      0.01      0.28         0.01
  43035P                      0.21      0.21      0.23      0.22         0.21
  43036P                      0.01      0.01      0.21      0.01         0.01
  54013P                     35.79     35.79     35.79      0.01        11.73
  54014P                     35.79     35.79     35.80      0.01         0.09
  54015P                     35.78     35.79     35.79      0.01         0.05
  54016P                     35.78     35.79     35.79      0.01         0.03
  54017P                     35.78     35.79     35.79      0.01         0.05
  54018P                     35.67     35.67     35.79      0.01         0.01
  54019P                     30.36     30.36     35.78      0.01         0.01
  54020P                      0.33      0.33      0.61      0.01         0.01
  54021P                      0.08      0.08      0.56      0.01         0.01
  54022P                      0.01      0.01      0.09      0.01         0.01
  54028P                      0.01      0.01      0.45      0.01         0.01
  54029P                      0.01      0.12      0.01      0.06         0.01
  54030P                      0.07      0.07      0.12      0.04         0.06
  54031P                      0.01      0.01      0.07      0.01         0.01
  54033P                      0.28      0.41      0.28      0.01         0.28
  54034P                      0.25      0.25      0.37      0.01         0.01
  54035P                      0.04      0.04      0.25      0.01         0.01
  54036P                      0.01      0.01      0.12      0.01         0.01
  54038P                      0.01      0.28      0.01      0.22         0.01
  54039P                      0.28      0.37      0.28      0.33         0.28
  54040P                      0.32      0.32      0.37      0.01         0.01
  54041P                      0.17      0.17      0.32      0.01         0.01
  54042P                      0.17      0.41      0.17      0.43         0.17
  54043P                      0.35      0.37      0.35      0.34         0.35
  54044P                      0.37      0.38      0.37      0.36         0.37
  54045P                      0.35      0.35      0.43      0.01         0.01
  54046P                      0.28      0.28      0.35      0.01         0.01
  54047P                      0.24      0.24      0.28      0.11         0.18
  54070P                      0.37      0.37      0.41      0.31         0.36
  54070P2                     0.30      0.30      0.34      0.01         0.01
  54138P                      0.61      0.61     30.37      0.01         0.01
  54172P                     35.68     35.68     36.93      0.03         0.11
  54173P                     35.57     35.67     35.68      0.18         0.31
  54174P                     35.63     35.78     35.67      0.35         1.33
  54175P                     35.67     35.72     35.78      0.11         0.51
  54204P                     35.22     35.22     35.99      0.01         0.01
  54205P                     35.56     35.71     35.59      0.01         0.23
  54206P                     35.70     35.76     35.71      0.01         0.62
  54207P                     34.54     34.54     35.76      0.01         0.04
  54208P                      0.51      0.51     34.56      0.01         0.01
  54209P                      0.14      0.14      0.51      0.01         0.01
  54210P                      0.01      0.01      0.14      0.01         0.01
  54217P                      0.68      0.68      0.79      0.66         0.68
  54218P                      0.68      0.85      0.68      0.46         0.44
  54219P                      0.79      0.79      0.85      0.01         0.01
  54220P                      0.35      0.35      9.14      0.01         0.07
  54221P                      0.35      0.61      0.35      0.05         0.04
  54221P2                     0.01      0.17      0.01      0.01         0.01
  54222P                      0.37      0.37      0.61      0.24         0.25
  54223P                      0.25      0.25      0.47      0.22         0.20
  54226P                      0.01      0.01     47.87      0.01         0.01
  54227P                     33.25     33.27     35.72      0.01         0.65
  54228P                     33.04     35.45     33.26      2.15         4.65
  54229P                      8.26      8.26     35.45      1.14         1.27
  54230P                      2.99      3.00      8.26      1.37         1.51
  54231P                      2.22      2.22      3.00      0.01         0.01
  54232P                      1.89      1.89      2.22      0.01         0.01
  54233P                      1.75      1.75      1.89      0.01         0.01
  54234P                      1.46      1.46      1.75      0.01         0.01
  54235P                      1.23      1.23      1.57      0.41         0.42
  54236P                      0.90      0.90      1.23      0.01         0.01
  54237P                      0.68      0.68      0.90      0.01         0.01
  54238P                      0.66      0.66      0.68      0.47         0.44
  54240P                      0.21      0.21      0.66      0.01         0.01
  54245P                     35.96     35.96     36.03     27.56         0.92
  54246P                      0.01      0.01     35.96      0.01         0.01
  54247P                      0.26      0.26      0.81      0.01         0.01
  54248P                      0.03      0.03      0.26      0.01         0.01
  54249P                      0.03      0.15      0.03      0.43         0.03
  54249P2                     0.15      0.15      0.61      0.01         0.01
  54250P                      0.04      0.04      0.15      0.01         0.01
  54251P                      0.01      0.01      0.04      0.01         0.01
  54253P                      0.01      0.01      0.16      0.01         0.01
  54258P                      0.48      0.56      0.48      0.56         0.48
  54259P                      0.01      0.01      0.50      0.01         0.01
  54261P                      0.01      0.62      0.01      0.65         0.01
  54262P                      0.50      0.50      0.62      0.01         0.01
  54263P                      0.57      0.83      0.57      0.88         0.57
  54264P                      0.78      0.78      0.83      0.59         0.70
  54265P                      0.47      0.47      0.78      0.01         0.01
  54266P                      0.45      0.46      0.49      0.16         0.14
  54268P                      0.54      0.54     12.08      0.01         0.01
  54269P                      0.33      0.33      0.53      0.01         0.02
  54270P                      0.22      0.22      0.35      0.01         0.01
  54271P                      0.16      0.16      0.22      0.01         0.01
  54272P                      0.01     16.84      0.01     16.98         0.01
  54273P                      9.43      9.43     14.80      0.01         0.01
  54274P                      0.01      0.01      8.50      0.01         0.01
  54278P                      0.01      1.82      0.01      1.76         0.01
  54279P                      1.78      1.79      1.82      1.77         1.76
  54280P                      1.60      2.54      1.60      2.64         1.60
  54281P                      1.76      1.76      2.54      1.48         1.63
  54282P                      1.66      1.66      1.76      0.01         0.01
  54283P                      1.58      1.58      1.67      0.01         0.04
  54284P                      1.35      1.35      1.63      0.07         0.34
  54285P                      1.26      1.26      1.35      0.95         0.95
  54286P                      1.08      1.08      1.26      0.74         0.76
  54287P                      0.61      0.61      1.08      0.01         0.01
  54288P                      0.55      0.55      0.61      0.01         0.01
  54289P                      0.50      0.50      0.55      0.01         0.01
  54290P                      0.51      0.90      0.51      0.71         0.34
  54291P                      0.93      0.93      1.02      0.50         0.45
  54292P                      0.88      0.88      0.93      0.81         0.81
  54293P                      0.85      0.85      0.88      0.80         0.82
  54294P                      0.70      0.70      0.85      0.01         0.01
  54295P                      0.61      0.61      0.70      0.01         0.01
  54296P                      0.61      0.83      0.61      0.82         0.61
  54297P                      0.60      0.60      0.83      0.60         0.60
  54298P                      0.52      0.52     33.22      0.34         0.36
  54299P                      0.39      0.39      0.52      0.01         0.01
  54300P                      0.28      0.28      0.39      0.01         0.01
  54302P                      0.01      0.01      1.76      0.01         0.01
  54306P                      0.01      0.01      0.43      0.01         0.01
  54307P                      0.01      0.15      0.01      0.10         0.01
  54308P                      0.01      0.01      0.11      0.01         0.01
  54312P                      0.18      0.18      0.47      0.01         0.01
  54313P                      0.01      0.01      0.18      0.01         0.01
  54314P                      0.24      0.24      0.42      0.01         0.01
  54315P                      0.24      0.28      0.24      0.29         0.24
  54316P                      0.24      0.24      0.28      0.01         0.01
  54317P                      0.22      0.22      0.24      0.01         0.01
  54318P                      0.19      0.19      0.26      0.01         0.01
  54318P2                     0.19      0.19      0.38      0.01         0.01
  54319P                      0.22      0.22      0.28      0.01         0.01
  54320P                      0.05      0.05      0.26      0.01         0.01
  54321P                      0.01      0.01      0.05      0.01         0.01
  54322P                      0.01      0.10      0.01      0.10         0.01
  54325P                      0.22      0.22      0.63      0.01         0.01
  54326P                      0.07      0.07      0.24      0.01         0.01
  54327P                      0.01      0.01      0.07      0.01         0.01
  54504P                     34.47     34.47     35.80      0.01         0.10
  54509P                     35.79     35.79     35.82      0.01         0.28
  54510P                     30.47     30.47     35.79      0.01         0.27
  54511P                      5.62      5.62     30.51      0.01         0.58
  54512P                      0.17      0.17      8.84      0.01         0.01
  54513P                      0.01      0.01      0.17      0.01         0.01
  54516P                      0.01      0.01      8.84      0.01         0.01
  54530P                      0.53      0.53      1.58      0.50         0.51
  54531P                      0.29      0.29      0.61      0.27         0.27
  54532P                      0.01      0.01      0.29      0.01         0.01
  54534P                      1.35      1.35      1.72      0.01         0.01
  54536P                      0.93      0.93     47.55      0.01         0.01
  54536P2                     0.98      0.98      1.35      0.01         0.01
  54537P                      0.78      0.78      1.72      0.01         0.01
  54538P                      0.65      0.65      0.78      0.01         0.01
  54539P                      0.01      0.01      0.65      0.01         0.01
  54542P                      0.01      0.01      0.97      0.01         0.01
  54544P                      0.10      0.10      0.97      0.04         0.06
  54558P                      0.16      0.16      0.19      0.01         0.01
  54559P                      0.08      0.08      0.73      0.01         0.01
  54560P                      0.06      0.07      0.08      0.01         0.02
  54561P                      0.02      0.02      0.07      0.02         0.01
  54562P                      0.01      0.01      0.02      0.01         0.01
  54565P                      0.01      0.01      0.15      0.01         0.01
  54576P                      0.01      0.47      0.01      0.39         0.01
  54577P                      0.47      0.58      0.47      0.57         0.47
  54578P                      0.58      0.73      0.58      0.74         0.58
  54579P                      0.77      0.83      0.77      0.75         0.77
  54580P                      0.49      0.49      0.77      0.01         0.01
  54581P                      0.30      0.30      0.49      0.01         0.01
  54582P                      0.30      0.50      0.30      0.49         0.30
  54583P                      0.39      0.39      0.50      0.18         0.19
  54584P                      0.29      0.29      0.42      0.03         0.01
  54585P                      0.22      0.22      0.29      0.01         0.01
  54586P                      0.29      0.29      0.57      0.01         0.01
  54587P                      0.01      0.01      0.33      0.01         0.01
  54590P                      0.62      0.62      0.83      0.01         0.01
  54591P                      0.54      0.54      0.62      0.01         0.01
  54592P                      0.33      0.33      0.49      0.01         0.01
  54593P2                     0.01      0.01      0.53      0.01         0.01
  54595P                      0.01      0.24      0.01      0.24         0.01
  54596P                      0.01      0.01      0.24      0.01         0.01
  54597P                      1.18      1.18      5.71      0.01         0.01
  54598P                      0.01      0.01      1.18      0.01         0.01
  54602P                      1.50      1.50      2.00      0.01         0.01
  54603P                      1.24      1.24      1.50      0.83         0.86
  54604P                      0.01      0.01      1.24      0.01         0.01
  54612P                      1.32      1.32      1.71      0.02         0.01
  54613P                      0.17      0.17      1.32      0.01         0.01
  54614P                      1.36      1.36      1.58      0.01         0.01
  54615P                      0.92      0.92      1.46      0.01         0.01
  54616P                      0.01      0.01      0.92      0.01         0.01
  54621P                      0.43      0.43      0.61      0.01         0.01
  54622P                      0.35      0.35      0.43      0.22         0.24
  54623P                      0.28      0.28      0.35      0.21         0.24
  54624P                      0.01      0.01      0.32      0.01         0.01
  54625P                      0.01      0.19      0.01      0.09         0.01
  54626P                      0.11      0.11      0.19      0.01         0.01
  54627P                      0.01      0.01      0.11      0.01         0.01
  54635P                      0.01      0.01      0.08      0.01         0.01
  54642P                      0.01      0.01      0.93      0.01         0.01
  54650P                      0.47      0.47      0.52      0.18         0.01
  54653P                      0.20      0.20      0.52      0.01         0.01
  54667P                      0.08      0.08      1.02      0.01         0.01
  54683P                      0.13      0.13     33.61      0.01         0.01
  54701P                      0.28      0.28     35.79      0.01         0.01
  54702P                      0.01      0.01      0.28      0.01         0.01
  54728P                      1.38      1.38      1.50      0.01         0.01
  54729P                      0.01      0.01      1.38      0.01         0.01
  54734P                      0.01      0.01      0.83      0.01         0.01
  54741P                      0.19      0.27      0.19      0.14         0.12
  54742P                      0.17      0.17      0.27      0.05         0.01
  54743P                      0.12      0.12      0.17      0.05         0.01
  54744P                      0.06      0.06      0.12      0.01         0.01
  54745P                      0.02      0.02      0.06      0.01         0.01
  5TH&BINT                    1.60      1.60      1.91      0.01         0.01
  5TH&BINT_2                  1.79      1.91      1.79      2.56         1.79
  LINK77                     14.73     22.86     24.67     10.65         5.89
  REG-025F                    9.18     18.53     11.27      0.43         1.41
  

  Analysis begun on:  Wed Jun 24 14:54:13 2026
  Analysis ended on:  Wed Jun 24 14:54:28 2026
  Total elapsed time: 00:00:15