
  EPA STORM WATER MANAGEMENT MODEL - VERSION 5.2 (Build 5.2.4)
  ------------------------------------------------------------

  WARNING 04: minimum elevation drop used for Conduit 35
  WARNING 04: minimum elevation drop used for Conduit 39
  
  ****************
  Analysis Options
  ****************
  Flow Units ............... GPM
  Process Models:
    Rainfall/Runoff ........ NO
    RDII ................... NO
    Snowmelt ............... NO
    Groundwater ............ NO
    Flow Routing ........... YES
    Ponding Allowed ........ NO
    Water Quality .......... NO
  Flow Routing Method ...... DYNWAVE
  Surcharge Method ......... EXTRAN
  Starting Date ............ 01/01/2002 00:00:00
  Ending Date .............. 01/01/2002 12:00:00
  Antecedent Dry Days ...... 5.0
  Report Time Step ......... 00:05:00
  Routing Time Step ........ 30.00 sec
  Variable Time Step ....... YES
  Maximum Trials ........... 8
  Number of Threads ........ 1
  Head Tolerance ........... 0.005000 ft
  
  
  **************************        Volume        Volume
  Flow Routing Continuity        acre-feet      10^6 gal
  **************************     ---------     ---------
  Dry Weather Inflow .......         0.191         0.062
  Wet Weather Inflow .......         0.000         0.000
  Groundwater Inflow .......         0.000         0.000
  RDII Inflow ..............         0.000         0.000
  External Inflow ..........         0.000         0.000
  External Outflow .........         0.000         0.000
  Flooding Loss ............         0.100         0.033
  Evaporation Loss .........         0.000         0.000
  Exfiltration Loss ........         0.000         0.000
  Initial Stored Volume ....         0.011         0.003
  Final Stored Volume ......         0.064         0.021
  Continuity Error (%) .....        18.587
  
  
  *************************
  Highest Continuity Errors
  *************************
  Node FSASMH-1 (100.00%)
  Node SASMH-133 (100.00%)
  Node SASMH-149 (100.00%)
  Node SASMH-16 (100.00%)
  Node SASMH-88 (100.00%)
  
  
  ***************************
  Time-Step Critical Elements
  ***************************
  Link 43 (60.96%)
  
  
  ********************************
  Highest Flow Instability Indexes
  ********************************
  Link 41 (48)
  Link 31 (13)
  Link SASP-100 (7)
  Link 45 (1)
  
  
  *********************************
  Most Frequent Nonconverging Nodes
  *********************************
  Node 18 (29.07%)
  Node 22 (29.07%)
  Node 44 (25.98%)
  Node SASMH-132 (1.03%)
  Node SASMH-106 (0.84%)
  
  
  *************************
  Routing Time Step Summary
  *************************
  Minimum Time Step           :    15.91 sec
  Average Time Step           :    27.78 sec
  Maximum Time Step           :    30.00 sec
  % of Time in Steady State   :     0.00
  Average Iterations per Step :     4.14
  % of Steps Not Converging   :    29.07
  Time Step Frequencies       :
     30.000 -  3.817 sec      :   100.00 %
      3.817 -  0.486 sec      :     0.00 %
      0.486 -  0.062 sec      :     0.00 %
      0.062 -  0.008 sec      :     0.00 %
      0.008 -  0.001 sec      :     0.00 %
  
  
  ******************
  Node Depth Summary
  ******************
  
  ---------------------------------------------------------------------------------
                                 Average  Maximum  Maximum  Time of Max    Reported
                                   Depth    Depth      HGL   Occurrence   Max Depth
  Node                 Type         Feet     Feet     Feet  days hr:min        Feet
  ---------------------------------------------------------------------------------
  10                   JUNCTION     0.00     0.00  3827.09     0  00:00        0.00
  12                   JUNCTION     0.00     0.00  3828.33     0  00:00        0.00
  14                   JUNCTION     0.00     0.00  3825.63     0  00:00        0.00
  16                   JUNCTION     0.00     0.00  3839.00     0  00:00        0.00
  20                   JUNCTION     0.00     0.00  3837.90     0  00:00        0.00
  24                   JUNCTION     0.00     0.00  3835.00     0  00:00        0.00
  26                   JUNCTION     0.00     0.00  3830.00     0  00:00        0.00
  28                   JUNCTION     0.00     0.00  3851.00     0  00:00        0.00
  30                   JUNCTION     0.00     0.00  3847.00     0  00:00        0.00
  32                   JUNCTION     0.00     0.00  3847.00     0  00:00        0.00
  34                   JUNCTION     3.97    14.24  3842.24     0  12:00       14.24
  36                   JUNCTION     0.75    56.51  3903.51     0  08:25       56.48
  38                   JUNCTION     0.02     0.04  3834.04     0  08:34        0.04
  40                   JUNCTION     0.00     0.00  3847.00     0  00:00        0.00
  42                   JUNCTION     9.50    22.00  3851.00     0  08:59       22.00
  44                   JUNCTION     2.36    56.20  3905.20     0  09:11       53.79
  46                   JUNCTION     0.03     0.06  3836.06     0  08:01        0.06
  48                   JUNCTION     0.00     0.00  3849.00     0  00:00        0.00
  50                   JUNCTION     0.00     0.00  3841.00     0  00:00        0.00
  FSASMH-1             JUNCTION     0.01     0.06  3841.41     0  12:00        0.06
  FSASMH-2             JUNCTION     0.00     0.00  3842.81     0  00:00        0.00
  FSASMH-3             JUNCTION     0.00     0.00  3844.52     0  00:00        0.00
  FSASMH-4             JUNCTION     0.00     0.00  3845.83     0  00:00        0.00
  FSASMH-5             JUNCTION     0.00     0.00  3843.09     0  00:00        0.00
  FSASMH-6             JUNCTION     0.00     0.00  3844.66     0  00:00        0.00
  FSASMH-7             JUNCTION     0.00     0.00  3846.35     0  00:00        0.00
  FSASMH-8             JUNCTION     0.00     0.00  3847.66     0  00:00        0.00
  SASMH-1              JUNCTION     0.00     0.00  3827.01     0  00:00        0.00
  SASMH-10             JUNCTION     0.00     0.00  3828.23     0  00:00        0.00
  SASMH-100            JUNCTION     0.00     0.00  3836.26     0  00:00        0.00
  SASMH-101            JUNCTION     0.00     0.00  3837.83     0  00:00        0.00
  SASMH-102            JUNCTION     0.00     0.00  3839.45     0  12:00        0.00
  SASMH-103            JUNCTION     0.01     0.01  3840.17     0  12:00        0.01
  SASMH-104            JUNCTION     0.01     0.04  3857.79     0  11:58        0.04
  SASMH-105            JUNCTION     0.00     0.00  3868.92     0  05:28        0.00
  SASMH-106            JUNCTION     3.07     8.08  3878.70     0  08:02        8.08
  SASMH-107            JUNCTION     0.00     0.00  3881.10     0  00:00        0.00
  SASMH-108            JUNCTION     0.00     0.00  3834.56     0  00:00        0.00
  SASMH-109            JUNCTION     0.00     0.00  3833.50     0  00:00        0.00
  SASMH-11             JUNCTION     0.00     0.00  3827.15     0  00:00        0.00
  SASMH-110            JUNCTION     0.00     0.00  3833.06     0  00:00        0.00
  SASMH-111            JUNCTION     0.00     0.00  3831.52     0  00:00        0.00
  SASMH-112            JUNCTION     0.00     0.00  3843.48     0  00:00        0.00
  SASMH-113            JUNCTION     0.00     0.00  3843.96     0  00:00        0.00
  SASMH-114            JUNCTION     0.00     0.00  3844.50     0  00:00        0.00
  SASMH-115            JUNCTION     0.00     0.00  3842.67     0  00:00        0.00
  SASMH-116            JUNCTION     0.00     0.00  3844.37     0  00:00        0.00
  SASMH-117            JUNCTION     0.00     0.00  3846.07     0  00:00        0.00
  SASMH-118            JUNCTION     0.00     0.00  3840.83     0  00:00        0.00
  SASMH-119            JUNCTION     0.00     0.00  3842.50     0  00:00        0.00
  SASMH-12             JUNCTION     0.00     0.00  3827.66     0  00:00        0.00
  SASMH-120            JUNCTION     0.00     0.00  3843.31     0  00:00        0.00
  SASMH-121            JUNCTION     0.00     0.00  3844.51     0  12:00        0.00
  SASMH-122            JUNCTION     0.01     0.02  3845.73     0  08:06        0.02
  SASMH-123            JUNCTION     0.00     0.00  3851.05     0  12:00        0.00
  SASMH-124            JUNCTION     0.01     0.02  3854.31     0  08:06        0.02
  SASMH-125            JUNCTION     0.00     0.00  3857.72     0  06:57        0.00
  SASMH-126            JUNCTION     0.00     0.00  3861.09     0  07:59        0.00
  SASMH-127            JUNCTION     0.01     0.03  3862.22     0  12:00        0.03
  SASMH-128            JUNCTION     0.00     0.00  3872.99     0  00:00        0.00
  SASMH-129            JUNCTION     0.00     0.00  3861.42     0  12:00        0.00
  SASMH-13             JUNCTION     0.00     0.00  3826.34     0  00:00        0.00
  SASMH-130            JUNCTION     0.02     0.05  3863.24     0  12:00        0.05
  SASMH-131            JUNCTION     0.00     0.00  3869.00     0  08:35        0.00
  SASMH-132            JUNCTION     3.57     6.66  3876.30     0  06:17        6.66
  SASMH-133            JUNCTION     0.01     0.04  3872.72     0  12:00        0.04
  SASMH-134            JUNCTION     0.00     0.00  3877.27     0  00:00        0.00
  SASMH-135            JUNCTION     0.00     0.00  3882.74     0  00:00        0.00
  SASMH-136            JUNCTION     0.00     0.00  3890.86     0  00:00        0.00
  SASMH-137            JUNCTION     0.00     0.00  3874.04     0  00:00        0.00
  SASMH-138            JUNCTION     0.00     0.00  3875.41     0  00:00        0.00
  SASMH-139            JUNCTION     0.00     0.00  3878.65     0  00:00        0.00
  SASMH-14             JUNCTION     0.00     0.00  3831.66     0  00:00        0.00
  SASMH-140            JUNCTION     0.00     0.00  3880.03     0  00:00        0.00
  SASMH-141            JUNCTION     0.00     0.00  3883.17     0  00:00        0.00
  SASMH-142            JUNCTION     0.00     0.00  3883.61     0  00:00        0.00
  SASMH-143            JUNCTION     0.00     0.00  3885.31     0  00:00        0.00
  SASMH-144            JUNCTION     0.00     0.00  3858.22     0  07:35        0.00
  SASMH-145            JUNCTION     0.00     0.00  3859.23     0  06:46        0.00
  SASMH-146            JUNCTION     0.00     0.00  3860.17     0  06:28        0.00
  SASMH-147            JUNCTION     0.00     0.00  3861.14     0  06:59        0.00
  SASMH-148            JUNCTION     4.17     9.35  3872.68     0  07:13        9.35
  SASMH-149            JUNCTION     0.01     0.04  3864.52     0  12:00        0.04
  SASMH-15             JUNCTION     0.00     0.00  3830.21     0  00:00        0.00
  SASMH-150            JUNCTION     0.00     0.00  3865.99     0  00:00        0.00
  SASMH-151            JUNCTION     0.00     0.00  3874.17     0  00:00        0.00
  SASMH-152            JUNCTION     0.00     0.00  3884.52     0  00:00        0.00
  SASMH-153            JUNCTION     0.00     0.00  3875.04     0  00:00        0.00
  SASMH-154            JUNCTION     0.00     0.00  3875.34     0  00:00        0.00
  SASMH-155            JUNCTION     0.00     0.00  3879.38     0  00:00        0.00
  SASMH-156            JUNCTION     0.00     0.00  3886.68     0  00:00        0.00
  SASMH-157            JUNCTION     0.00     0.00  3870.75     0  00:00        0.00
  SASMH-158            JUNCTION     0.00     0.00  3875.34     0  00:00        0.00
  SASMH-159            JUNCTION     0.00     0.00  3886.36     0  00:00        0.00
  SASMH-16             JUNCTION     0.09     0.21  3828.93     0  12:00        0.21
  SASMH-160            JUNCTION     0.00     0.00  3889.05     0  00:00        0.00
  SASMH-17             JUNCTION     0.00     0.00  3821.05     0  00:00        0.00
  SASMH-18             JUNCTION     0.00     0.00  3818.09     0  00:00        0.00
  SASMH-19             JUNCTION     0.00     0.00  3818.38     0  00:00        0.00
  SASMH-2              JUNCTION     0.00     0.00  3826.06     0  00:00        0.00
  SASMH-20             JUNCTION     0.00     0.00  3818.64     0  00:00        0.00
  SASMH-21             JUNCTION     0.00     0.00  3819.63     0  00:00        0.00
  SASMH-22             JUNCTION     0.00     0.00  3820.62     0  00:00        0.00
  SASMH-23             JUNCTION     0.00     0.00  3820.89     0  00:00        0.00
  SASMH-24             JUNCTION     0.00     0.00  3821.23     0  00:00        0.00
  SASMH-25             JUNCTION     0.00     0.00  3821.71     0  00:00        0.00
  SASMH-26             JUNCTION     0.00     0.00  3823.78     0  00:00        0.00
  SASMH-27             JUNCTION     0.00     0.00  3825.16     0  00:00        0.00
  SASMH-28             JUNCTION     0.00     0.00  3826.74     0  00:00        0.00
  SASMH-29             JUNCTION     0.00     0.00  3827.85     0  00:00        0.00
  SASMH-3              JUNCTION     0.00     0.00  3824.35     0  00:00        0.00
  SASMH-30             JUNCTION     0.00     0.00  3829.55     0  00:00        0.00
  SASMH-31             JUNCTION     0.00     0.00  3831.25     0  00:00        0.00
  SASMH-32             JUNCTION     0.00     0.00  3821.90     0  00:00        0.00
  SASMH-33             JUNCTION     0.00     0.00  3822.94     0  00:00        0.00
  SASMH-34             JUNCTION     0.00     0.00  3823.37     0  00:00        0.00
  SASMH-35             JUNCTION     0.00     0.00  3824.35     0  00:00        0.00
  SASMH-36             JUNCTION     0.00     0.00  3826.40     0  00:00        0.00
  SASMH-37             JUNCTION     0.00     0.00  3824.54     0  00:00        0.00
  SASMH-38             JUNCTION     0.00     0.00  3825.94     0  00:00        0.00
  SASMH-39             JUNCTION     0.00     0.00  3827.64     0  00:00        0.00
  SASMH-4              JUNCTION     0.00     0.00  3823.76     0  00:00        0.00
  SASMH-40             JUNCTION     0.00     0.00  3835.96     0  00:00        0.00
  SASMH-41             JUNCTION     0.00     0.00  3834.26     0  00:00        0.00
  SASMH-42             JUNCTION     0.00     0.00  3832.56     0  00:00        0.00
  SASMH-43             JUNCTION     0.00     0.00  3830.86     0  00:00        0.00
  SASMH-44             JUNCTION     0.00     0.00  3829.16     0  05:14        0.00
  SASMH-45             JUNCTION     0.00     0.00  3831.62     0  05:09        0.00
  SASMH-46             JUNCTION     0.00     0.00  3832.56     0  00:00        0.00
  SASMH-47             JUNCTION     0.00     0.00  3834.26     0  00:00        0.00
  SASMH-48             JUNCTION     0.00     0.00  3835.96     0  00:00        0.00
  SASMH-49             JUNCTION     0.01     0.03  3828.83     0  06:07        0.03
  SASMH-5              JUNCTION     0.00     0.00  3823.23     0  00:00        0.00
  SASMH-50             JUNCTION     0.00     0.00  3833.81     0  00:00        0.00
  SASMH-51             JUNCTION     0.00     0.00  3835.16     0  00:00        0.00
  SASMH-52             JUNCTION     0.00     0.00  3836.52     0  00:00        0.00
  SASMH-53             JUNCTION     0.00     0.00  3832.85     0  05:04        0.00
  SASMH-54             JUNCTION     0.02     0.05  3834.13     0  12:00        0.05
  SASMH-55             JUNCTION     3.77     6.91  3842.22     0  06:05        6.91
  SASMH-56             JUNCTION     0.00     0.00  3837.23     0  00:00        0.00
  SASMH-57             JUNCTION     0.00     0.00  3838.53     0  00:00        0.00
  SASMH-58             JUNCTION     0.00     0.00  3839.82     0  00:00        0.00
  SASMH-59             JUNCTION     0.00     0.00  3839.78     0  00:00        0.00
  SASMH-6              JUNCTION     0.00     0.00  3822.71     0  12:00        0.00
  SASMH-60             JUNCTION     0.00     0.00  3840.84     0  00:00        0.00
  SASMH-61             JUNCTION     0.00     0.00  3842.54     0  00:00        0.00
  SASMH-62             JUNCTION     0.00     0.00  3844.24     0  00:00        0.00
  SASMH-63             JUNCTION     0.00     0.00  3845.94     0  00:00        0.00
  SASMH-64             JUNCTION     0.00     0.00  3847.45     0  00:00        0.00
  SASMH-65             JUNCTION     0.00     0.00  3850.36     0  00:00        0.00
  SASMH-66             JUNCTION     0.00     0.00  3853.73     0  00:00        0.00
  SASMH-67             JUNCTION     0.00     0.00  3831.68     0  00:00        0.00
  SASMH-68             JUNCTION     0.00     0.00  3832.52     0  00:00        0.00
  SASMH-69             JUNCTION     0.00     0.00  3835.26     0  00:00        0.00
  SASMH-7              JUNCTION     0.03     0.06  3827.63     0  12:00        0.06
  SASMH-70             JUNCTION     0.00     0.00  3836.55     0  00:00        0.00
  SASMH-71             JUNCTION     0.00     0.00  3844.16     0  00:00        0.00
  SASMH-72             JUNCTION     0.00     0.00  3845.34     0  00:00        0.00
  SASMH-73             JUNCTION     0.00     0.00  3847.04     0  00:00        0.00
  SASMH-74             JUNCTION     0.00     0.00  3836.96     0  12:00        0.00
  SASMH-75             JUNCTION     0.02     0.04  3838.70     0  12:00        0.04
  SASMH-76             JUNCTION     3.57    10.22  3850.58     0  08:18       10.22
  SASMH-77             JUNCTION     0.00     0.00  3844.69     0  00:00        0.00
  SASMH-78             JUNCTION     0.00     0.00  3843.03     0  00:00        0.00
  SASMH-79             JUNCTION     0.00     0.00  3841.33     0  00:00        0.00
  SASMH-8              JUNCTION     4.15     6.77  3835.19     0  05:19        6.77
  SASMH-80             JUNCTION     0.00     0.00  3839.63     0  00:00        0.00
  SASMH-81             JUNCTION     0.00     0.00  3838.83     0  00:00        0.00
  SASMH-82             JUNCTION     0.00     0.00  3838.19     0  00:00        0.00
  SASMH-83             JUNCTION     0.00     0.00  3849.54     0  00:00        0.00
  SASMH-84             JUNCTION     0.00     0.00  3855.24     0  00:00        0.00
  SASMH-85             JUNCTION     0.00     0.00  3859.04     0  00:00        0.00
  SASMH-86             JUNCTION     0.00     0.00  3844.11     0  00:00        0.00
  SASMH-87             JUNCTION     0.00     0.00  3837.97     0  00:00        0.00
  SASMH-88             JUNCTION     0.02     0.07  3837.67     0  12:00        0.07
  SASMH-89             JUNCTION     8.07    16.71  3853.23     0  06:42       16.71
  SASMH-9              JUNCTION     0.01     0.04  3829.70     0  12:00        0.04
  SASMH-90             JUNCTION     0.03     0.09  3835.76     0  12:00        0.09
  SASMH-91             JUNCTION     0.00     0.00  3834.83     0  04:36        0.00
  SASMH-92             JUNCTION     0.00     0.00  3834.44     0  05:00        0.00
  SASMH-93             JUNCTION     0.00     0.01  3834.06     0  10:02        0.01
  SASMH-94             JUNCTION     0.01     0.01  3833.52     0  06:33        0.01
  SASMH-95             JUNCTION     0.00     0.00  3832.79     0  04:54        0.00
  SASMH-96             JUNCTION     0.00     0.00  3832.17     0  04:27        0.00
  SASMH-97             JUNCTION     0.00     0.00  3831.75     0  05:15        0.00
  SASMH-98             JUNCTION     0.00     0.00  3831.33     0  05:15        0.00
  SASMH-99             JUNCTION     0.00     0.00  3830.28     0  05:16        0.00
  18                   OUTFALL      0.00     0.00  3837.00     0  00:00        0.00
  22                   OUTFALL      0.00     0.00  3834.00     0  00:00        0.00
  9000                 STORAGE      1.50     1.50  3825.03     0  12:00        1.50
  9002                 STORAGE      1.50     1.50  3828.33     0  00:00        1.50
  9004                 STORAGE      1.50     1.50  3827.09     0  12:00        1.50
  9006                 STORAGE      1.50     1.50  3814.95     0  00:00        1.50
  9008                 STORAGE      6.69    17.24  3842.24     0  12:00       17.24
  9010                 STORAGE      1.87     2.50  3833.50     0  08:24        2.48
  9012                 STORAGE     12.36    25.00  3851.00     0  08:59       25.00
  9014                 STORAGE      1.93     2.52  3835.52     0  08:15        2.49
  
  
  *******************
  Node Inflow Summary
  *******************
  
  -------------------------------------------------------------------------------------------------
                                  Maximum  Maximum                  Lateral       Total        Flow
                                  Lateral    Total  Time of Max      Inflow      Inflow     Balance
                                   Inflow   Inflow   Occurrence      Volume      Volume       Error
  Node                 Type           GPM      GPM  days hr:min    10^6 gal    10^6 gal     Percent
  -------------------------------------------------------------------------------------------------
  10                   JUNCTION      0.00     0.00     0  00:00           0           0       0.000 gal
  12                   JUNCTION      0.00     0.00     0  00:00           0           0       0.000 gal
  14                   JUNCTION      0.00     0.00     0  00:00           0           0       0.000 gal
  16                   JUNCTION      0.00     0.00     0  00:00           0           0       0.000 gal
  20                   JUNCTION      0.00     0.00     0  00:00           0           0       0.000 gal
  24                   JUNCTION      0.00     0.00     0  00:00           0           0       0.000 gal
  26                   JUNCTION      0.00     0.00     0  00:00           0           0       0.000 gal
  28                   JUNCTION      0.00     0.00     0  00:00           0           0       0.000 gal
  30                   JUNCTION      0.00     0.00     0  00:00           0           0       0.000 gal
  32                   JUNCTION      0.00     0.00     0  00:00           0           0       0.000 gal
  34                   JUNCTION     39.99   141.84     0  08:24     0.00879      0.0101      45.669
  36                   JUNCTION      0.00   101.72     0  08:24           0    0.000702     -46.832
  38                   JUNCTION      6.00     6.00     0  08:00     0.00132     0.00132       0.692
  40                   JUNCTION      0.00     0.00     0  00:00           0           0       0.000 gal
  42                   JUNCTION     54.60   165.39     0  08:42       0.012      0.0171      19.454
  44                   JUNCTION      0.00   323.98     0  08:16           0     0.00424     -15.887
  46                   JUNCTION     21.00    21.00     0  08:00     0.00462     0.00462       0.141
  48                   JUNCTION      0.00     0.00     0  00:00           0           0       0.000 gal
  50                   JUNCTION      0.00     0.00     0  00:00           0           0       0.000 gal
  FSASMH-1             JUNCTION      0.00     0.80     0  08:17           0    2.82e-05      28.216 gal
  FSASMH-2             JUNCTION      0.00     0.00     0  00:00           0           0       0.000 gal
  FSASMH-3             JUNCTION      0.00     0.00     0  00:00           0           0       0.000 gal
  FSASMH-4             JUNCTION      0.00     0.00     0  00:00           0           0       0.000 gal
  FSASMH-5             JUNCTION      0.00     0.00     0  00:00           0           0       0.000 gal
  FSASMH-6             JUNCTION      0.00     0.00     0  00:00           0           0       0.000 gal
  FSASMH-7             JUNCTION      0.00     0.00     0  00:00           0           0       0.000 gal
  FSASMH-8             JUNCTION      0.00     0.00     0  00:00           0           0       0.000 gal
  SASMH-1              JUNCTION      0.00     0.00     0  00:00           0           0       0.000 gal
  SASMH-10             JUNCTION      0.00     0.00     0  00:00           0           0       0.000 gal
  SASMH-100            JUNCTION      0.00     0.00     0  00:00           0           0       0.000 gal
  SASMH-101            JUNCTION      0.00     0.00     0  00:00           0           0       0.000 gal
  SASMH-102            JUNCTION      0.00     0.15     0  03:52           0    1.35e-07       0.135 gal
  SASMH-103            JUNCTION      0.00     0.42     0  05:59           0    1.01e-06       0.871 gal
  SASMH-104            JUNCTION      0.00     0.60     0  04:42           0    1.73e-05      16.343 gal
  SASMH-105            JUNCTION      0.00     0.43     0  00:00           0    1.53e-05     -11.940
  SASMH-106            JUNCTION     20.01    20.01     0  08:00      0.0044      0.0044      61.730
  SASMH-107            JUNCTION      0.00     0.00     0  00:00           0           0       0.000 gal
  SASMH-108            JUNCTION      0.00     0.00     0  00:00           0           0       0.000 gal
  SASMH-109            JUNCTION      0.00     0.00     0  00:00           0           0       0.000 gal
  SASMH-11             JUNCTION      0.00     0.00     0  00:00           0           0       0.000 gal
  SASMH-110            JUNCTION      0.00     0.00     0  00:00           0           0       0.000 gal
  SASMH-111            JUNCTION      0.00     0.00     0  00:00           0           0       0.000 gal
  SASMH-112            JUNCTION      0.00     0.00     0  00:00           0           0       0.000 gal
  SASMH-113            JUNCTION      0.00     0.00     0  00:00           0           0       0.000 gal
  SASMH-114            JUNCTION      0.00     0.00     0  00:00           0           0       0.000 gal
  SASMH-115            JUNCTION      0.00     0.00     0  00:00           0           0       0.000 gal
  SASMH-116            JUNCTION      0.00     0.00     0  00:00           0           0       0.000 gal
  SASMH-117            JUNCTION      0.00     0.00     0  00:00           0           0       0.000 gal
  SASMH-118            JUNCTION      0.00     0.00     0  00:00           0           0       0.000 gal
  SASMH-119            JUNCTION      0.00     0.00     0  00:00           0           0       0.000 gal
  SASMH-12             JUNCTION      0.00     0.00     0  00:00           0           0       0.000 gal
  SASMH-120            JUNCTION      0.00     0.00     0  00:00           0           0       0.000 gal
  SASMH-121            JUNCTION      0.00     0.16     0  05:55           0    8.72e-08       0.087 gal
  SASMH-122            JUNCTION      0.00     1.16     0  06:49           0    4.38e-06       4.291 gal
  SASMH-123            JUNCTION      0.00     0.37     0  04:45           0    1.97e-07       0.197 gal
  SASMH-124            JUNCTION      0.00     0.38     0  04:45           0     3.6e-06       3.405 gal
  SASMH-125            JUNCTION      0.00     0.31     0  04:44           0    3.31e-06      -0.290 gal
  SASMH-126            JUNCTION      0.00     0.09     0  04:33           0    4.03e-06       0.716 gal
  SASMH-127            JUNCTION      0.00     0.43     0  00:00           0    2.22e-05     175.335
  SASMH-128            JUNCTION      0.00     0.00     0  00:00           0           0       0.000 gal
  SASMH-129            JUNCTION      0.00     0.09     0  01:03           0    7.64e-08       0.076 gal
  SASMH-13             JUNCTION      0.00     0.00     0  00:00           0           0       0.000 gal
  SASMH-130            JUNCTION      0.00     0.32     0  00:01           0    3.49e-05      34.820 gal
  SASMH-131            JUNCTION      0.00     0.44     0  00:00           0    3.04e-05     -12.981
  SASMH-132            JUNCTION     20.01    20.01     0  08:00      0.0044      0.0044      21.136
  SASMH-133            JUNCTION      0.00     0.38     0  06:17           0    1.52e-05      15.241 gal
  SASMH-134            JUNCTION      0.00     0.00     0  00:00           0           0       0.000 gal
  SASMH-135            JUNCTION      0.00     0.00     0  00:00           0           0       0.000 gal
  SASMH-136            JUNCTION      0.00     0.00     0  00:00           0           0       0.000 gal
  SASMH-137            JUNCTION      0.00     0.00     0  00:00           0           0       0.000 gal
  SASMH-138            JUNCTION      0.00     0.00     0  00:00           0           0       0.000 gal
  SASMH-139            JUNCTION      0.00     0.00     0  00:00           0           0       0.000 gal
  SASMH-14             JUNCTION      0.00     0.00     0  00:00           0           0       0.000 gal
  SASMH-140            JUNCTION      0.00     0.00     0  00:00           0           0       0.000 gal
  SASMH-141            JUNCTION      0.00     0.00     0  00:00           0           0       0.000 gal
  SASMH-142            JUNCTION      0.00     0.00     0  00:00           0           0       0.000 gal
  SASMH-143            JUNCTION      0.00     0.00     0  00:00           0           0       0.000 gal
  SASMH-144            JUNCTION      0.00     0.09     0  05:54           0    3.07e-06      -1.305 gal
  SASMH-145            JUNCTION      0.00     0.10     0  04:45           0    3.34e-06       0.267 gal
  SASMH-146            JUNCTION      0.00     0.09     0  04:44           0     3.6e-06       0.265 gal
  SASMH-147            JUNCTION      0.00     0.09     0  04:33           0    4.03e-06       0.424 gal
  SASMH-148            JUNCTION     20.01    20.01     0  08:00      0.0044      0.0044      34.698
  SASMH-149            JUNCTION      0.00     0.32     0  07:13           0    1.75e-05      17.456 gal
  SASMH-15             JUNCTION      0.00     0.00     0  00:00           0           0       0.000 gal
  SASMH-150            JUNCTION      0.00     0.00     0  00:00           0           0       0.000 gal
  SASMH-151            JUNCTION      0.00     0.00     0  00:00           0           0       0.000 gal
  SASMH-152            JUNCTION      0.00     0.00     0  00:00           0           0       0.000 gal
  SASMH-153            JUNCTION      0.00     0.00     0  00:00           0           0       0.000 gal
  SASMH-154            JUNCTION      0.00     0.00     0  00:00           0           0       0.000 gal
  SASMH-155            JUNCTION      0.00     0.00     0  00:00           0           0       0.000 gal
  SASMH-156            JUNCTION      0.00     0.00     0  00:00           0           0       0.000 gal
  SASMH-157            JUNCTION      0.00     0.00     0  00:00           0           0       0.000 gal
  SASMH-158            JUNCTION      0.00     0.00     0  00:00           0           0       0.000 gal
  SASMH-159            JUNCTION      0.00     0.00     0  00:00           0           0       0.000 gal
  SASMH-16             JUNCTION      0.00     0.18     0  05:19           0    6.52e-05      65.162 gal
  SASMH-160            JUNCTION      0.00     0.00     0  00:00           0           0       0.000 gal
  SASMH-17             JUNCTION      0.00     0.00     0  00:00           0           0       0.000 gal
  SASMH-18             JUNCTION      0.00     0.00     0  00:00           0           0       0.000 gal
  SASMH-19             JUNCTION      0.00     0.00     0  00:00           0           0       0.000 gal
  SASMH-2              JUNCTION      0.00     0.00     0  00:00           0           0       0.000 gal
  SASMH-20             JUNCTION      0.00     0.00     0  00:00           0           0       0.000 gal
  SASMH-21             JUNCTION      0.00     0.00     0  00:00           0           0       0.000 gal
  SASMH-22             JUNCTION      0.00     0.00     0  00:00           0           0       0.000 gal
  SASMH-23             JUNCTION      0.00     0.00     0  00:00           0           0       0.000 gal
  SASMH-24             JUNCTION      0.00     0.00     0  00:00           0           0       0.000 gal
  SASMH-25             JUNCTION      0.00     0.00     0  00:00           0           0       0.000 gal
  SASMH-26             JUNCTION      0.00     0.00     0  00:00           0           0       0.000 gal
  SASMH-27             JUNCTION      0.00     0.00     0  00:00           0           0       0.000 gal
  SASMH-28             JUNCTION      0.00     0.00     0  00:00           0           0       0.000 gal
  SASMH-29             JUNCTION      0.00     0.00     0  00:00           0           0       0.000 gal
  SASMH-3              JUNCTION      0.00     0.00     0  00:00           0           0       0.000 gal
  SASMH-30             JUNCTION      0.00     0.00     0  00:00           0           0       0.000 gal
  SASMH-31             JUNCTION      0.00     0.00     0  00:00           0           0       0.000 gal
  SASMH-32             JUNCTION      0.00     0.00     0  00:00           0           0       0.000 gal
  SASMH-33             JUNCTION      0.00     0.00     0  00:00           0           0       0.000 gal
  SASMH-34             JUNCTION      0.00     0.00     0  00:00           0           0       0.000 gal
  SASMH-35             JUNCTION      0.00     0.00     0  00:00           0           0       0.000 gal
  SASMH-36             JUNCTION      0.00     0.00     0  00:00           0           0       0.000 gal
  SASMH-37             JUNCTION      0.00     0.00     0  00:00           0           0       0.000 gal
  SASMH-38             JUNCTION      0.00     0.00     0  00:00           0           0       0.000 gal
  SASMH-39             JUNCTION      0.00     0.00     0  00:00           0           0       0.000 gal
  SASMH-4              JUNCTION      0.00     0.00     0  00:00           0           0       0.000 gal
  SASMH-40             JUNCTION      0.00     0.00     0  00:00           0           0       0.000 gal
  SASMH-41             JUNCTION      0.00     0.00     0  00:00           0           0       0.000 gal
  SASMH-42             JUNCTION      0.00     0.00     0  00:00           0           0       0.000 gal
  SASMH-43             JUNCTION      0.00     0.00     0  00:00           0           0       0.000 gal
  SASMH-44             JUNCTION      0.00     0.09     0  04:30           0    3.04e-06       0.201 gal
  SASMH-45             JUNCTION      0.00     0.09     0  01:55           0     3.2e-06       0.160 gal
  SASMH-46             JUNCTION      0.00     0.00     0  00:00           0           0       0.000 gal
  SASMH-47             JUNCTION      0.00     0.00     0  00:00           0           0       0.000 gal
  SASMH-48             JUNCTION      0.00     0.00     0  00:00           0           0       0.000 gal
  SASMH-49             JUNCTION      0.00     0.10     0  04:51           0    2.83e-06       2.589 gal
  SASMH-5              JUNCTION      0.00     0.00     0  00:00           0           0       0.000 gal
  SASMH-50             JUNCTION      0.00     0.00     0  00:00           0           0       0.000 gal
  SASMH-51             JUNCTION      0.00     0.00     0  00:00           0           0       0.000 gal
  SASMH-52             JUNCTION      0.00     0.00     0  00:00           0           0       0.000 gal
  SASMH-53             JUNCTION      0.00     0.09     0  00:01           0    3.54e-06       0.349 gal
  SASMH-54             JUNCTION      0.00     0.48     0  00:00           0    2.25e-05      18.935 gal
  SASMH-55             JUNCTION     21.60    21.60     0  08:00     0.00475     0.00475      18.979
  SASMH-56             JUNCTION      0.00     0.00     0  00:00           0           0       0.000 gal
  SASMH-57             JUNCTION      0.00     0.00     0  00:00           0           0       0.000 gal
  SASMH-58             JUNCTION      0.00     0.00     0  00:00           0           0       0.000 gal
  SASMH-59             JUNCTION      0.00     0.00     0  00:00           0           0       0.000 gal
  SASMH-6              JUNCTION      0.00     0.09     0  00:01           0    8.99e-08       0.090 gal
  SASMH-60             JUNCTION      0.00     0.00     0  00:00           0           0       0.000 gal
  SASMH-61             JUNCTION      0.00     0.00     0  00:00           0           0       0.000 gal
  SASMH-62             JUNCTION      0.00     0.00     0  00:00           0           0       0.000 gal
  SASMH-63             JUNCTION      0.00     0.00     0  00:00           0           0       0.000 gal
  SASMH-64             JUNCTION      0.00     0.00     0  00:00           0           0       0.000 gal
  SASMH-65             JUNCTION      0.00     0.00     0  00:00           0           0       0.000 gal
  SASMH-66             JUNCTION      0.00     0.00     0  00:00           0           0       0.000 gal
  SASMH-67             JUNCTION      0.00     0.00     0  00:00           0           0       0.000 gal
  SASMH-68             JUNCTION      0.00     0.00     0  00:00           0           0       0.000 gal
  SASMH-69             JUNCTION      0.00     0.00     0  00:00           0           0       0.000 gal
  SASMH-7              JUNCTION      0.00     0.49     0  00:00           0    3.07e-05      30.563 gal
  SASMH-70             JUNCTION      0.00     0.00     0  00:00           0           0       0.000 gal
  SASMH-71             JUNCTION      0.00     0.00     0  00:00           0           0       0.000 gal
  SASMH-72             JUNCTION      0.00     0.00     0  00:00           0           0       0.000 gal
  SASMH-73             JUNCTION      0.00     0.00     0  00:00           0           0       0.000 gal
  SASMH-74             JUNCTION      0.00     0.12     0  00:01           0    8.55e-08       0.085 gal
  SASMH-75             JUNCTION      0.00     0.61     0  00:00           0    2.71e-05      26.992 gal
  SASMH-76             JUNCTION     23.01    23.01     0  08:00     0.00506     0.00506      82.562
  SASMH-77             JUNCTION      0.00     0.00     0  00:00           0           0       0.000 gal
  SASMH-78             JUNCTION      0.00     0.00     0  00:00           0           0       0.000 gal
  SASMH-79             JUNCTION      0.00     0.00     0  00:00           0           0       0.000 gal
  SASMH-8              JUNCTION     37.50    37.50     0  08:00     0.00825     0.00825      14.037
  SASMH-80             JUNCTION      0.00     0.00     0  00:00           0           0       0.000 gal
  SASMH-81             JUNCTION      0.00     0.00     0  00:00           0           0       0.000 gal
  SASMH-82             JUNCTION      0.00     0.00     0  00:00           0           0       0.000 gal
  SASMH-83             JUNCTION      0.00     0.00     0  00:00           0           0       0.000 gal
  SASMH-84             JUNCTION      0.00     0.00     0  00:00           0           0       0.000 gal
  SASMH-85             JUNCTION      0.00     0.00     0  00:00           0           0       0.000 gal
  SASMH-86             JUNCTION      0.00     0.00     0  00:00           0           0       0.000 gal
  SASMH-87             JUNCTION      0.00     0.00     0  00:00           0           0       0.000 gal
  SASMH-88             JUNCTION      0.00     0.52     0  06:42           0    2.85e-05      28.478 gal
  SASMH-89             JUNCTION     20.01    20.01     0  08:00      0.0044      0.0044      25.605
  SASMH-9              JUNCTION      0.00     0.20     0  05:19           0    1.91e-05      19.115 gal
  SASMH-90             JUNCTION      0.00     0.44     0  00:00           0    3.57e-05      30.999 gal
  SASMH-91             JUNCTION      0.00     0.09     0  04:32           0    4.72e-06       0.442 gal
  SASMH-92             JUNCTION      0.00     0.09     0  04:40           0    4.27e-06       0.325 gal
  SASMH-93             JUNCTION      0.00     0.09     0  04:36           0    3.95e-06       0.836 gal
  SASMH-94             JUNCTION      0.00     0.09     0  05:01           0    3.11e-06       1.943 gal
  SASMH-95             JUNCTION      0.00     0.10     0  04:47           0    1.17e-06       0.283 gal
  SASMH-96             JUNCTION      0.00     0.10     0  05:01           0    8.88e-07       0.279 gal
  SASMH-97             JUNCTION      0.00     0.09     0  04:31           0    6.09e-07       0.231 gal
  SASMH-98             JUNCTION      0.00     0.09     0  04:51           0    3.78e-07       0.261 gal
  SASMH-99             JUNCTION      0.00     0.09     0  05:15           0    1.18e-07       0.117 gal
  18                   OUTFALL       0.00     0.00     0  00:00           0           0       0.000 gal
  22                   OUTFALL       0.00     0.00     0  00:00           0           0       0.000 gal
  9000                 STORAGE       0.00     0.00     0  06:07           0    0.000317       0.021
  9002                 STORAGE       0.00     0.00     0  00:00           0    0.000317       0.000
  9004                 STORAGE       0.00     0.00     0  05:16           0    0.000317       0.000
  9006                 STORAGE       0.00     0.00     0  00:00           0    0.000317       0.000
  9008                 STORAGE       0.00   108.44     0  08:24           0     0.00726      99.152
  9010                 STORAGE       0.00     6.00     0  08:32           0     0.00163      32.654
  9012                 STORAGE       0.00   167.51     0  08:42           0     0.00874      60.567
  9014                 STORAGE       0.00    21.23     0  08:01           0     0.00493       4.288
  
  
  **********************
  Node Surcharge Summary
  **********************
  
  Surcharging occurs when water rises above the top of the highest conduit.
  ---------------------------------------------------------------------
                                               Max. Height   Min. Depth
                                   Hours       Above Crown    Below Rim
  Node                 Type      Surcharged           Feet         Feet
  ---------------------------------------------------------------------
  36                   JUNCTION        0.28         56.190        0.000
  42                   JUNCTION        3.30          3.677        0.000
  44                   JUNCTION        3.48         55.873        0.000
  SASMH-106            JUNCTION        4.08          7.312        0.000
  SASMH-132            JUNCTION        5.87          5.897        0.000
  SASMH-148            JUNCTION        4.81          8.581        0.000
  SASMH-55             JUNCTION        5.97          6.240        0.000
  SASMH-76             JUNCTION        3.72          9.290        0.000
  SASMH-8              JUNCTION        6.74          6.004        0.000
  SASMH-89             JUNCTION        5.37         15.940        0.000
  
  
  *********************
  Node Flooding Summary
  *********************
  
  Flooding refers to all water that overflows a node, whether it ponds or not.
  --------------------------------------------------------------------------
                                                             Total   Maximum
                                 Maximum   Time of Max       Flood    Ponded
                        Hours       Rate    Occurrence      Volume     Depth
  Node                 Flooded       GPM   days hr:min    10^6 gal      Feet
  --------------------------------------------------------------------------
  42                      3.01    140.75      0  09:52       0.006     0.000
  SASMH-106               3.96     19.96      0  08:02       0.003     0.000
  SASMH-132               5.71     19.89      0  08:00       0.004     0.000
  SASMH-148               4.78     19.89      0  08:00       0.003     0.000
  SASMH-55                5.92     21.55      0  08:00       0.004     0.000
  SASMH-76                3.70     22.79      0  08:20       0.003     0.000
  SASMH-8                 6.68     37.23      0  08:00       0.007     0.000
  SASMH-89                5.31     19.83      0  08:00       0.003     0.000
  9012                    3.01     44.60      0  08:59       0.000     0.000
  
  
  **********************
  Storage Volume Summary
  **********************
  
  ------------------------------------------------------------------------------------------------
                         Average    Avg   Evap  Exfil     Maximum    Max    Time of Max    Maximum
                          Volume   Pcnt   Pcnt   Pcnt      Volume   Pcnt     Occurrence    Outflow
  Storage Unit          1000 ftł   Full   Loss   Loss    1000 ftł   Full    days hr:min        GPM
  ------------------------------------------------------------------------------------------------
  9000                     0.042    7.7    0.0    0.0       0.042    7.7       0  12:00       0.00
  9002                     0.042    6.0    0.0    0.0       0.042    6.0       0  00:00       0.00
  9004                     0.042    5.7    0.0    0.0       0.042    5.7       0  12:00       0.00
  9006                     0.042    7.1    0.0    0.0       0.042    7.1       0  00:00       0.00
  9008                     0.189   26.8    0.0    0.0       0.487   68.9       0  12:00       0.00
  9010                     0.053    9.3    0.0    0.0       0.071   12.5       0  08:24     101.72
  9012                     0.349   49.4    0.0    0.0       0.707  100.0       0  08:59      23.99
  9014                     0.054    9.6    0.0    0.0       0.071   12.6       0  08:15     323.98
  
  
  ***********************
  Outfall Loading Summary
  ***********************
  
  -----------------------------------------------------------
                         Flow       Avg       Max       Total
                         Freq      Flow      Flow      Volume
  Outfall Node           Pcnt       GPM       GPM    10^6 gal
  -----------------------------------------------------------
  18                     0.00      0.00      0.00       0.000
  22                     0.00      0.00      0.00       0.000
  -----------------------------------------------------------
  System                 0.00      0.00      0.00       0.000
  
  
  ********************
  Link Flow Summary
  ********************
  
  -----------------------------------------------------------------------------
                                 Maximum  Time of Max   Maximum    Max/    Max/
                                  |Flow|   Occurrence   |Veloc|    Full    Full
  Link                 Type          GPM  days hr:min    ft/sec    Flow   Depth
  -----------------------------------------------------------------------------
  11                   CONDUIT      0.00     0  00:00      0.00    0.00    0.00
  13                   CONDUIT      0.00     0  00:00      0.00    0.00    0.00
  15                   CONDUIT      0.00     0  00:00      0.00    0.00    0.00
  17                   CONDUIT      0.00     0  00:00      0.00    0.00    0.00
  19                   CONDUIT      0.00     0  00:00      0.00    0.00    0.00
  21                   CONDUIT      0.00     0  00:00      0.00    0.00    0.00
  23                   CONDUIT      0.00     0  00:00      0.00    0.00    0.00
  25                   CONDUIT      0.00     0  00:00      0.00    0.00    0.00
  29                   CONDUIT      0.00     0  00:00      0.00    0.00    0.00
  31                   CONDUIT    108.44     0  08:24      0.44    0.04    1.00
  33                   CONDUIT      0.00     0  00:00      0.00    0.00    0.00
  35                   CONDUIT    101.85     0  08:24      2.89  237.02    0.92
  37                   CONDUIT      6.00     0  08:32      0.07    0.01    0.53
  39                   CONDUIT      0.00     0  00:00      0.00    0.00    0.00
  41                   CONDUIT    167.51     0  08:42      1.07    0.12    1.00
  43                   CONDUIT     21.23     0  08:01      0.24    0.02    0.55
  45                   CONDUIT    113.32     0  04:19      3.17    5.41    1.00
  47                   CONDUIT      0.00     0  00:00      0.00    0.00    0.00
  49                   CONDUIT      0.00     0  00:00      0.00    0.00    0.00
  FSASP-1              CONDUIT      0.80     0  08:17      0.01   10.22    0.54
  FSASP-2              CONDUIT      0.00     0  00:00      0.00    0.00    0.00
  FSASP-3              CONDUIT      0.00     0  00:00      0.00    0.00    0.00
  FSASP-4              CONDUIT      0.00     0  00:00      0.00    0.00    0.00
  FSASP-5              CONDUIT      0.00     0  00:00      0.00    0.00    0.00
  FSASP-6              CONDUIT      0.00     0  00:00      0.00    0.00    0.00
  FSASP-7              CONDUIT      0.00     0  00:00      0.00    0.00    0.00
  FSASP-8              CONDUIT      0.00     0  00:00      0.00    0.00    0.00
  LSP1                 CONDUIT      0.00     0  06:07      0.00    0.00    0.52
  LSP2                 CONDUIT      0.00     0  00:00      0.00    0.00    0.50
  LSP3                 CONDUIT      0.00     0  05:16      0.00    0.00    0.50
  LSP4                 CONDUIT      0.00     0  00:00      0.00    0.00    0.50
  SASP-1               CONDUIT      0.00     0  00:00      0.00    0.00    0.00
  SASP-10              CONDUIT      0.00     0  00:00      0.00    0.00    0.00
  SASP-100             CONDUIT      0.60     0  04:42      0.00    4.86    0.00
  SASP-101             CONDUIT      0.43     0  00:00      0.01    9.91    0.50
  SASP-102             CONDUIT      0.00     0  00:00      0.00    0.00    0.50
  SASP-103             CONDUIT      0.00     0  00:00      0.00    0.00    0.00
  SASP-104             CONDUIT      0.00     0  00:00      0.00    0.00    0.00
  SASP-105             CONDUIT      0.00     0  00:00      0.00    0.00    0.00
  SASP-106             CONDUIT      0.00     0  00:00      0.00    0.00    0.00
  SASP-107             CONDUIT      0.00     0  00:00      0.00    0.00    0.00
  SASP-108             CONDUIT      0.00     0  00:00      0.00    0.00    0.00
  SASP-109             CONDUIT      0.00     0  00:00      0.00    0.00    0.00
  SASP-11              CONDUIT      0.00     0  00:00      0.00    0.00    0.00
  SASP-110             CONDUIT      0.00     0  00:00      0.00    0.00    0.00
  SASP-111             CONDUIT      0.00     0  00:00      0.00    0.00    0.00
  SASP-112             CONDUIT      0.00     0  00:00      0.00    0.00    0.00
  SASP-113             CONDUIT      0.00     0  00:00      0.00    0.00    0.00
  SASP-114             CONDUIT      0.00     0  00:00      0.00    0.00    0.00
  SASP-115             CONDUIT      0.00     0  00:00      0.00    0.00    0.00
  SASP-116             CONDUIT      0.00     0  00:00      0.00    0.00    0.00
  SASP-117             CONDUIT      0.00     0  00:00      0.00    0.00    0.00
  SASP-118             CONDUIT      0.16     0  05:55      0.00    3.60    0.01
  SASP-119             CONDUIT      0.00     0  00:00      0.00    0.00    0.00
  SASP-12              CONDUIT      0.00     0  00:00      0.00    0.00    0.00
  SASP-120             CONDUIT      0.37     0  04:45      0.00    4.27    0.02
  SASP-121             CONDUIT      0.38     0  04:45      0.00    4.42    0.01
  SASP-122             CONDUIT      0.31     0  04:44      0.00    3.75    0.01
  SASP-123             CONDUIT      0.09     0  04:33      0.00    2.01    0.02
  SASP-124             CONDUIT      0.00     0  00:00      0.00    0.00    0.00
  SASP-125             CONDUIT      0.00     0  00:00      0.00    0.00    0.00
  SASP-126             CONDUIT      0.09     0  01:03      0.00    2.12    0.04
  SASP-127             CONDUIT      0.32     0  00:01      0.00    3.68    0.00
  SASP-128             CONDUIT      0.44     0  00:00      0.11   10.04    0.50
  SASP-129             CONDUIT      0.38     0  06:17      0.00    4.71    0.53
  SASP-13              CONDUIT      0.00     0  00:00      0.00    0.00    0.00
  SASP-130             CONDUIT      0.00     0  00:00      0.00    0.00    0.00
  SASP-131             CONDUIT      0.00     0  00:00      0.00    0.00    0.00
  SASP-132             CONDUIT      0.00     0  00:00      0.00    0.00    0.00
  SASP-133             CONDUIT      0.00     0  00:00      0.00    0.00    0.00
  SASP-134             CONDUIT      0.00     0  00:00      0.00    0.00    0.00
  SASP-135             CONDUIT      0.00     0  00:00      0.00    0.00    0.00
  SASP-136             CONDUIT      0.00     0  00:00      0.00    0.00    0.00
  SASP-137             CONDUIT      0.00     0  00:00      0.00    0.00    0.00
  SASP-138             CONDUIT      0.00     0  00:00      0.00    0.00    0.00
  SASP-139             CONDUIT      0.00     0  00:00      0.00    0.00    0.00
  SASP-14              CONDUIT      0.00     0  00:00      0.00    0.00    0.08
  SASP-140             CONDUIT      1.16     0  06:49      0.00    6.50    0.00
  SASP-141             CONDUIT      0.09     0  05:54      0.00    2.00    0.00
  SASP-142             CONDUIT      0.10     0  04:45      0.00    2.19    0.00
  SASP-143             CONDUIT      0.09     0  04:44      0.00    2.08    0.00
  SASP-144             CONDUIT      0.09     0  04:33      0.00    2.01    0.02
  SASP-145             CONDUIT      0.43     0  00:00      0.03    9.95    0.50
  SASP-146             CONDUIT      0.32     0  07:13      0.00    7.23    0.53
  SASP-147             CONDUIT      0.00     0  00:00      0.00    0.00    0.00
  SASP-148             CONDUIT      0.00     0  00:00      0.00    0.00    0.00
  SASP-149             CONDUIT      0.00     0  00:00      0.00    0.00    0.00
  SASP-15              CONDUIT      0.18     0  05:19      0.01    4.20    0.66
  SASP-150             CONDUIT      0.00     0  00:00      0.00    0.00    0.00
  SASP-151             CONDUIT      0.00     0  00:00      0.00    0.00    0.00
  SASP-152             CONDUIT      0.00     0  00:00      0.00    0.00    0.00
  SASP-153             CONDUIT      0.00     0  00:00      0.00    0.00    0.00
  SASP-154             CONDUIT      0.00     0  00:00      0.00    0.00    0.00
  SASP-155             CONDUIT      0.00     0  00:00      0.00    0.00    0.00
  SASP-156             CONDUIT      0.00     0  00:00      0.00    0.00    0.00
  SASP-157             CONDUIT      0.00     0  00:00      0.00    0.00    0.00
  SASP-16              CONDUIT      0.00     0  00:00      0.00    0.00    0.00
  SASP-17              CONDUIT      0.00     0  00:00      0.00    0.00    0.00
  SASP-18              CONDUIT      0.00     0  00:00      0.00    0.00    0.00
  SASP-19              CONDUIT      0.00     0  00:00      0.00    0.00    0.00
  SASP-2               CONDUIT      0.00     0  00:00      0.00    0.00    0.00
  SASP-20              CONDUIT      0.00     0  00:00      0.00    0.00    0.00
  SASP-21              CONDUIT      0.00     0  00:00      0.00    0.00    0.00
  SASP-22              CONDUIT      0.00     0  00:00      0.00    0.00    0.00
  SASP-23              CONDUIT      0.00     0  00:00      0.00    0.00    0.00
  SASP-24              CONDUIT      0.00     0  00:00      0.00    0.00    0.00
  SASP-25              CONDUIT      0.00     0  00:00      0.00    0.00    0.00
  SASP-26              CONDUIT      0.00     0  00:00      0.00    0.00    0.00
  SASP-27              CONDUIT      0.00     0  00:00      0.00    0.00    0.00
  SASP-28              CONDUIT      0.00     0  00:00      0.00    0.00    0.00
  SASP-29              CONDUIT      0.00     0  00:00      0.00    0.00    0.00
  SASP-3               CONDUIT      0.00     0  00:00      0.00    0.00    0.00
  SASP-30              CONDUIT      0.00     0  00:00      0.00    0.00    0.00
  SASP-31              CONDUIT      0.00     0  00:00      0.00    0.00    0.00
  SASP-32              CONDUIT      0.00     0  00:00      0.00    0.00    0.00
  SASP-33              CONDUIT      0.00     0  00:00      0.00    0.00    0.00
  SASP-34              CONDUIT      0.00     0  00:00      0.00    0.00    0.00
  SASP-35              CONDUIT      0.00     0  00:00      0.00    0.00    0.00
  SASP-36              CONDUIT      0.00     0  00:00      0.00    0.00    0.00
  SASP-37              CONDUIT      0.00     0  00:00      0.00    0.00    0.00
  SASP-38              CONDUIT      0.00     0  00:00      0.00    0.00    0.00
  SASP-39              CONDUIT      0.00     0  00:00      0.00    0.00    0.00
  SASP-4               CONDUIT      0.00     0  00:00      0.00    0.00    0.00
  SASP-40              CONDUIT      0.00     0  00:00      0.00    0.00    0.00
  SASP-41              CONDUIT      0.00     0  00:00      0.00    0.00    0.00
  SASP-42              CONDUIT      0.00     0  00:00      0.00    0.00    0.00
  SASP-43              CONDUIT      0.09     0  04:30      0.00    1.21    0.00
  SASP-44              CONDUIT      0.00     0  00:00      0.00    0.00    0.00
  SASP-45              CONDUIT      0.00     0  00:00      0.00    0.00    0.00
  SASP-46              CONDUIT      0.00     0  00:00      0.00    0.00    0.00
  SASP-47              CONDUIT      0.10     0  04:51      0.00    1.26    0.00
  SASP-48              CONDUIT      0.00     0  00:00      0.00    0.00    0.00
  SASP-49              CONDUIT      0.00     0  00:00      0.00    0.00    0.00
  SASP-5               CONDUIT      0.00     0  00:00      0.00    0.00    0.00
  SASP-50              CONDUIT      0.00     0  00:00      0.00    0.00    0.00
  SASP-51              CONDUIT      0.09     0  01:55      0.00    2.17    0.00
  SASP-52              CONDUIT      0.09     0  00:01      0.00    2.10    0.04
  SASP-53              CONDUIT      0.48     0  00:00      0.03   10.92    0.50
  SASP-54              CONDUIT      0.00     0  00:00      0.00    0.00    0.00
  SASP-55              CONDUIT      0.00     0  00:00      0.00    0.00    0.00
  SASP-56              CONDUIT      0.00     0  00:00      0.00    0.00    0.00
  SASP-57              CONDUIT      0.00     0  00:00      0.00    0.00    0.00
  SASP-58              CONDUIT      0.00     0  00:00      0.00    0.00    0.00
  SASP-59              CONDUIT      0.00     0  00:00      0.00    0.00    0.00
  SASP-6               CONDUIT      0.09     0  00:01      0.00    2.08    0.05
  SASP-60              CONDUIT      0.00     0  00:00      0.00    0.00    0.00
  SASP-61              CONDUIT      0.00     0  00:00      0.00    0.00    0.00
  SASP-62              CONDUIT      0.00     0  00:00      0.00    0.00    0.00
  SASP-63              CONDUIT      0.00     0  00:00      0.00    0.00    0.00
  SASP-64              CONDUIT      0.00     0  00:00      0.00    0.00    0.00
  SASP-65              CONDUIT      0.00     0  00:00      0.00    0.00    0.00
  SASP-66              CONDUIT      0.00     0  00:00      0.00    0.00    0.00
  SASP-67              CONDUIT      0.00     0  00:00      0.00    0.00    0.00
  SASP-68              CONDUIT      0.00     0  00:00      0.00    0.00    0.00
  SASP-69              CONDUIT      0.00     0  00:00      0.00    0.00    0.00
  SASP-7               CONDUIT      0.49     0  00:00      0.57   11.29    0.50
  SASP-70              CONDUIT      0.00     0  00:00      0.00    0.00    0.00
  SASP-71              CONDUIT      0.00     0  00:00      0.00    0.00    0.00
  SASP-72              CONDUIT      0.12     0  00:01      0.00    1.56    0.03
  SASP-73              CONDUIT      0.61     0  00:00      0.01    7.85    0.50
  SASP-74              CONDUIT      0.00     0  00:00      0.00    0.00    0.00
  SASP-75              CONDUIT      0.00     0  00:00      0.00    0.00    0.00
  SASP-76              CONDUIT      0.00     0  00:00      0.00    0.00    0.00
  SASP-77              CONDUIT      0.00     0  00:00      0.00    0.00    0.00
  SASP-78              CONDUIT      0.00     0  00:00      0.00    0.00    0.00
  SASP-79              CONDUIT      0.00     0  00:00      0.00    0.00    0.00
  SASP-8               CONDUIT      0.20     0  05:19      0.00    4.48    0.53
  SASP-80              CONDUIT      0.00     0  00:00      0.00    0.00    0.00
  SASP-81              CONDUIT      0.00     0  00:00      0.00    0.00    0.00
  SASP-82              CONDUIT      0.00     0  00:00      0.00    0.00    0.00
  SASP-83              CONDUIT      0.00     0  00:00      0.00    0.00    0.00
  SASP-84              CONDUIT      0.00     0  00:00      0.00    0.00    0.00
  SASP-85              CONDUIT      0.52     0  06:42      0.01   11.82    0.55
  SASP-86              CONDUIT      0.44     0  00:00      0.05    9.99    0.50
  SASP-87              CONDUIT      0.09     0  04:32      0.00    2.04    0.07
  SASP-88              CONDUIT      0.09     0  04:40      0.00    2.17    0.00
  SASP-89              CONDUIT      0.09     0  04:36      0.00    2.16    0.00
  SASP-9               CONDUIT      0.00     0  00:00      0.00    0.00    0.00
  SASP-90              CONDUIT      0.09     0  05:01      0.00    2.14    0.01
  SASP-91              CONDUIT      0.10     0  04:47      0.00    2.19    0.01
  SASP-92              CONDUIT      0.10     0  05:01      0.00    2.26    0.00
  SASP-93              CONDUIT      0.09     0  04:31      0.00    2.17    0.00
  SASP-94              CONDUIT      0.09     0  04:51      0.00    2.14    0.00
  SASP-95              CONDUIT      0.09     0  05:15      0.00    1.97    0.00
  SASP-96              CONDUIT      0.00     0  00:00      0.00    0.00    0.00
  SASP-97              CONDUIT      0.00     0  00:00      0.00    0.00    0.00
  SASP-98              CONDUIT      0.15     0  03:52      0.00    3.38    0.01
  SASP-99              CONDUIT      0.42     0  05:59      0.00    4.91    0.03
  5000                 PUMP         0.00     0  00:00              0.00
  5002                 PUMP         0.00     0  00:00              0.00
  5004                 PUMP         0.00     0  00:00              0.00
  5006                 PUMP         0.00     0  00:00              0.00
  5008                 PUMP         0.00     0  00:00              0.00
  5010                 PUMP       101.72     0  08:24              0.30
  5012                 PUMP         0.00     0  00:00              0.00
  5014                 PUMP       323.98     0  08:16              0.97
  
  
  ***************************
  Flow Classification Summary
  ***************************
  
  -------------------------------------------------------------------------------------
                      Adjusted    ---------- Fraction of Time in Flow Class ---------- 
                       /Actual         Up    Down  Sub   Sup   Up    Down  Norm  Inlet 
  Conduit               Length    Dry  Dry   Dry   Crit  Crit  Crit  Crit  Ltd   Ctrl  
  -------------------------------------------------------------------------------------
  11                      1.00   1.00  0.00  0.00  0.00  0.00  0.00  0.00  0.00  0.00
  13                      3.82   1.00  0.00  0.00  0.00  0.00  0.00  0.00  0.00  0.00
  15                      2.47   1.00  0.00  0.00  0.00  0.00  0.00  0.00  0.00  0.00
  17                     39.30   1.00  0.00  0.00  0.00  0.00  0.00  0.00  0.00  0.00
  19                      1.00   1.00  0.00  0.00  0.00  0.00  0.00  0.00  0.00  0.00
  21                     36.60   1.00  0.00  0.00  0.00  0.00  0.00  0.00  0.00  0.00
  23                      1.00   1.00  0.00  0.00  0.00  0.00  0.00  0.00  0.00  0.00
  25                      1.00   1.00  0.00  0.00  0.00  0.00  0.00  0.00  0.00  0.00
  29                      1.00   1.00  0.00  0.00  0.00  0.00  0.00  0.00  0.00  0.00
  31                      4.25   0.00  0.00  0.00  1.00  0.00  0.00  0.00  0.39  0.00
  33                      1.00   1.00  0.00  0.00  0.00  0.00  0.00  0.00  0.00  0.00
  35                      1.00   0.70  0.00  0.00  0.00  0.00  0.00  0.30  0.00  0.00
  37                      1.00   0.00  0.00  0.00  1.00  0.00  0.00  0.00  1.00  0.00
  39                      1.00   1.00  0.00  0.00  0.00  0.00  0.00  0.00  0.00  0.00
  41                      2.43   0.00  0.00  0.00  1.00  0.00  0.00  0.00  0.22  0.00
  43                      1.36   0.00  0.00  0.00  1.00  0.00  0.00  0.00  1.00  0.00
  45                      1.00   0.36  0.00  0.00  0.28  0.00  0.00  0.36  0.00  0.00
  47                      1.00   1.00  0.00  0.00  0.00  0.00  0.00  0.00  0.00  0.00
  49                      1.00   1.00  0.00  0.00  0.00  0.00  0.00  0.00  0.00  0.00
  FSASP-1                 1.00   0.06  0.63  0.00  0.31  0.00  0.00  0.00  0.00  0.00
  FSASP-2                 1.00   1.00  0.00  0.00  0.00  0.00  0.00  0.00  0.00  0.00
  FSASP-3                 1.00   1.00  0.00  0.00  0.00  0.00  0.00  0.00  0.00  0.00
  FSASP-4                 1.00   1.00  0.00  0.00  0.00  0.00  0.00  0.00  0.00  0.00
  FSASP-5                 1.07   1.00  0.00  0.00  0.00  0.00  0.00  0.00  0.00  0.00
  FSASP-6                 1.00   1.00  0.00  0.00  0.00  0.00  0.00  0.00  0.00  0.00
  FSASP-7                 1.00   1.00  0.00  0.00  0.00  0.00  0.00  0.00  0.00  0.00
  FSASP-8                 1.00   1.00  0.00  0.00  0.00  0.00  0.00  0.00  0.00  0.00
  LSP1                    1.10   0.00  0.26  0.00  0.74  0.00  0.00  0.00  0.74  0.00
  LSP2                    1.00   0.00  1.00  0.00  0.00  0.00  0.00  0.00  0.00  0.00
  LSP3                    1.00   0.00  0.43  0.00  0.57  0.00  0.00  0.00  0.57  0.00
  LSP4                    1.29   0.00  1.00  0.00  0.00  0.00  0.00  0.00  0.00  0.00
  SASP-1                  1.00   1.00  0.00  0.00  0.00  0.00  0.00  0.00  0.00  0.00
  SASP-10                 1.00   1.00  0.00  0.00  0.00  0.00  0.00  0.00  0.00  0.00
  SASP-100                1.00   0.00  0.00  0.00  0.00  0.00  0.00  1.00  0.00  0.00
  SASP-101                1.00   0.00  0.00  0.00  0.00  0.00  0.00  1.00  0.00  0.00
  SASP-102                1.00   0.06  0.94  0.00  0.00  0.00  0.00  0.00  0.00  0.00
  SASP-103                1.00   1.00  0.00  0.00  0.00  0.00  0.00  0.00  0.00  0.00
  SASP-104                1.00   1.00  0.00  0.00  0.00  0.00  0.00  0.00  0.00  0.00
  SASP-105                1.00   1.00  0.00  0.00  0.00  0.00  0.00  0.00  0.00  0.00
  SASP-106                1.00   1.00  0.00  0.00  0.00  0.00  0.00  0.00  0.00  0.00
  SASP-107                1.00   1.00  0.00  0.00  0.00  0.00  0.00  0.00  0.00  0.00
  SASP-108                1.00   1.00  0.00  0.00  0.00  0.00  0.00  0.00  0.00  0.00
  SASP-109                1.00   1.00  0.00  0.00  0.00  0.00  0.00  0.00  0.00  0.00
  SASP-11                 1.00   1.00  0.00  0.00  0.00  0.00  0.00  0.00  0.00  0.00
  SASP-110                1.00   1.00  0.00  0.00  0.00  0.00  0.00  0.00  0.00  0.00
  SASP-111                1.00   1.00  0.00  0.00  0.00  0.00  0.00  0.00  0.00  0.00
  SASP-112                1.00   1.00  0.00  0.00  0.00  0.00  0.00  0.00  0.00  0.00
  SASP-113                1.00   1.00  0.00  0.00  0.00  0.00  0.00  0.00  0.00  0.00
  SASP-114                1.00   1.00  0.00  0.00  0.00  0.00  0.00  0.00  0.00  0.00
  SASP-115                1.00   1.00  0.00  0.00  0.00  0.00  0.00  0.00  0.00  0.00
  SASP-116                1.00   1.00  0.00  0.00  0.00  0.00  0.00  0.00  0.00  0.00
  SASP-117                1.00   0.49  0.00  0.00  0.00  0.00  0.00  0.51  0.00  0.00
  SASP-118                1.00   0.49  0.00  0.00  0.00  0.00  0.00  0.51  0.00  0.00
  SASP-119                1.00   0.40  0.00  0.00  0.00  0.00  0.00  0.60  0.00  0.00
  SASP-12                 1.00   1.00  0.00  0.00  0.00  0.00  0.00  0.00  0.00  0.00
  SASP-120                1.00   0.35  0.00  0.00  0.65  0.00  0.00  0.00  0.04  0.00
  SASP-121                1.00   0.27  0.00  0.00  0.00  0.00  0.00  0.73  0.00  0.00
  SASP-122                1.00   0.00  0.00  0.00  0.00  0.00  0.00  1.00  0.00  0.00
  SASP-123                1.00   0.00  0.00  0.00  0.00  0.00  0.00  1.00  0.00  0.00
  SASP-124                1.00   1.00  0.00  0.00  0.00  0.00  0.00  0.00  0.00  0.00
  SASP-125                1.00   0.09  0.00  0.00  0.00  0.00  0.00  0.91  0.00  0.00
  SASP-126                1.00   0.00  0.00  0.00  0.00  0.00  0.00  1.00  0.00  0.00
  SASP-127                1.00   0.00  0.00  0.00  0.00  0.00  0.00  1.00  0.00  0.00
  SASP-128                1.00   0.00  0.00  0.00  0.00  0.00  0.00  1.00  0.00  0.00
  SASP-129                1.00   0.02  0.50  0.00  0.48  0.00  0.00  0.00  0.00  0.00
  SASP-13                 1.00   1.00  0.00  0.00  0.00  0.00  0.00  0.00  0.00  0.00
  SASP-130                1.00   1.00  0.00  0.00  0.00  0.00  0.00  0.00  0.00  0.00
  SASP-131                1.00   1.00  0.00  0.00  0.00  0.00  0.00  0.00  0.00  0.00
  SASP-132                1.00   1.00  0.00  0.00  0.00  0.00  0.00  0.00  0.00  0.00
  SASP-133                1.00   1.00  0.00  0.00  0.00  0.00  0.00  0.00  0.00  0.00
  SASP-134                1.00   1.00  0.00  0.00  0.00  0.00  0.00  0.00  0.00  0.00
  SASP-135                1.00   1.00  0.00  0.00  0.00  0.00  0.00  0.00  0.00  0.00
  SASP-136                1.00   1.00  0.00  0.00  0.00  0.00  0.00  0.00  0.00  0.00
  SASP-137                1.00   1.00  0.00  0.00  0.00  0.00  0.00  0.00  0.00  0.00
  SASP-138                1.00   1.00  0.00  0.00  0.00  0.00  0.00  0.00  0.00  0.00
  SASP-139                1.00   1.00  0.00  0.00  0.00  0.00  0.00  0.00  0.00  0.00
  SASP-14                 1.00   0.52  0.48  0.00  0.00  0.00  0.00  0.00  0.00  0.00
  SASP-140                1.00   0.46  0.00  0.00  0.00  0.00  0.00  0.54  0.00  0.00
  SASP-141                1.00   0.36  0.00  0.00  0.00  0.00  0.00  0.64  0.00  0.00
  SASP-142                1.00   0.27  0.00  0.00  0.00  0.00  0.00  0.73  0.00  0.00
  SASP-143                1.00   0.00  0.00  0.00  0.00  0.00  0.00  1.00  0.00  0.00
  SASP-144                1.00   0.00  0.00  0.00  0.00  0.00  0.00  1.00  0.00  0.00
  SASP-145                1.00   0.00  0.00  0.00  0.00  0.00  0.00  1.00  0.00  0.00
  SASP-146                1.00   0.04  0.56  0.00  0.40  0.00  0.00  0.00  0.00  0.00
  SASP-147                1.00   1.00  0.00  0.00  0.00  0.00  0.00  0.00  0.00  0.00
  SASP-148                1.00   1.00  0.00  0.00  0.00  0.00  0.00  0.00  0.00  0.00
  SASP-149                1.00   1.00  0.00  0.00  0.00  0.00  0.00  0.00  0.00  0.00
  SASP-15                 1.00   0.01  0.10  0.00  0.88  0.00  0.00  0.00  0.00  0.00
  SASP-150                1.00   1.00  0.00  0.00  0.00  0.00  0.00  0.00  0.00  0.00
  SASP-151                1.00   1.00  0.00  0.00  0.00  0.00  0.00  0.00  0.00  0.00
  SASP-152                1.00   1.00  0.00  0.00  0.00  0.00  0.00  0.00  0.00  0.00
  SASP-153                1.00   1.00  0.00  0.00  0.00  0.00  0.00  0.00  0.00  0.00
  SASP-154                1.00   1.00  0.00  0.00  0.00  0.00  0.00  0.00  0.00  0.00
  SASP-155                1.00   1.00  0.00  0.00  0.00  0.00  0.00  0.00  0.00  0.00
  SASP-156                1.00   1.00  0.00  0.00  0.00  0.00  0.00  0.00  0.00  0.00
  SASP-157                1.00   1.00  0.00  0.00  0.00  0.00  0.00  0.00  0.00  0.00
  SASP-16                 1.00   0.00  0.00  0.00  0.00  0.00  0.00  1.00  0.00  0.00
  SASP-17                 1.00   1.00  0.00  0.00  0.00  0.00  0.00  0.00  0.00  0.00
  SASP-18                 1.00   1.00  0.00  0.00  0.00  0.00  0.00  0.00  0.00  0.00
  SASP-19                 1.19   1.00  0.00  0.00  0.00  0.00  0.00  0.00  0.00  0.00
  SASP-2                  1.00   1.00  0.00  0.00  0.00  0.00  0.00  0.00  0.00  0.00
  SASP-20                 1.00   1.00  0.00  0.00  0.00  0.00  0.00  0.00  0.00  0.00
  SASP-21                 1.00   1.00  0.00  0.00  0.00  0.00  0.00  0.00  0.00  0.00
  SASP-22                 1.11   1.00  0.00  0.00  0.00  0.00  0.00  0.00  0.00  0.00
  SASP-23                 1.00   1.00  0.00  0.00  0.00  0.00  0.00  0.00  0.00  0.00
  SASP-24                 1.00   1.00  0.00  0.00  0.00  0.00  0.00  0.00  0.00  0.00
  SASP-25                 1.00   1.00  0.00  0.00  0.00  0.00  0.00  0.00  0.00  0.00
  SASP-26                 1.00   1.00  0.00  0.00  0.00  0.00  0.00  0.00  0.00  0.00
  SASP-27                 1.00   1.00  0.00  0.00  0.00  0.00  0.00  0.00  0.00  0.00
  SASP-28                 1.00   1.00  0.00  0.00  0.00  0.00  0.00  0.00  0.00  0.00
  SASP-29                 1.00   1.00  0.00  0.00  0.00  0.00  0.00  0.00  0.00  0.00
  SASP-3                  1.00   1.00  0.00  0.00  0.00  0.00  0.00  0.00  0.00  0.00
  SASP-30                 1.00   1.00  0.00  0.00  0.00  0.00  0.00  0.00  0.00  0.00
  SASP-31                 2.04   1.00  0.00  0.00  0.00  0.00  0.00  0.00  0.00  0.00
  SASP-32                 1.00   1.00  0.00  0.00  0.00  0.00  0.00  0.00  0.00  0.00
  SASP-33                 1.00   1.00  0.00  0.00  0.00  0.00  0.00  0.00  0.00  0.00
  SASP-34                 1.00   1.00  0.00  0.00  0.00  0.00  0.00  0.00  0.00  0.00
  SASP-35                 2.08   1.00  0.00  0.00  0.00  0.00  0.00  0.00  0.00  0.00
  SASP-36                 1.00   1.00  0.00  0.00  0.00  0.00  0.00  0.00  0.00  0.00
  SASP-37                 1.00   1.00  0.00  0.00  0.00  0.00  0.00  0.00  0.00  0.00
  SASP-38                 1.00   1.00  0.00  0.00  0.00  0.00  0.00  0.00  0.00  0.00
  SASP-39                 1.00   1.00  0.00  0.00  0.00  0.00  0.00  0.00  0.00  0.00
  SASP-4                  1.00   1.00  0.00  0.00  0.00  0.00  0.00  0.00  0.00  0.00
  SASP-40                 1.00   1.00  0.00  0.00  0.00  0.00  0.00  0.00  0.00  0.00
  SASP-41                 1.00   1.00  0.00  0.00  0.00  0.00  0.00  0.00  0.00  0.00
  SASP-42                 1.00   1.00  0.00  0.00  0.00  0.00  0.00  0.00  0.00  0.00
  SASP-43                 1.00   0.16  0.00  0.00  0.00  0.00  0.00  0.84  0.00  0.00
  SASP-44                 1.00   1.00  0.00  0.00  0.00  0.00  0.00  0.00  0.00  0.00
  SASP-45                 1.00   1.00  0.00  0.00  0.00  0.00  0.00  0.00  0.00  0.00
  SASP-46                 1.00   1.00  0.00  0.00  0.00  0.00  0.00  0.00  0.00  0.00
  SASP-47                 1.00   0.22  0.00  0.00  0.00  0.00  0.00  0.78  0.00  0.00
  SASP-48                 1.00   1.00  0.00  0.00  0.00  0.00  0.00  0.00  0.00  0.00
  SASP-49                 1.00   1.00  0.00  0.00  0.00  0.00  0.00  0.00  0.00  0.00
  SASP-5                  1.00   1.00  0.00  0.00  0.00  0.00  0.00  0.00  0.00  0.00
  SASP-50                 1.00   1.00  0.00  0.00  0.00  0.00  0.00  0.00  0.00  0.00
  SASP-51                 1.00   0.00  0.00  0.00  0.00  0.00  0.00  1.00  0.00  0.00
  SASP-52                 1.00   0.00  0.00  0.00  0.00  0.00  0.00  1.00  0.00  0.00
  SASP-53                 1.00   0.00  0.00  0.00  0.00  0.00  0.00  1.00  0.00  0.00
  SASP-54                 1.00   1.00  0.00  0.00  0.00  0.00  0.00  0.00  0.00  0.00
  SASP-55                 1.00   1.00  0.00  0.00  0.00  0.00  0.00  0.00  0.00  0.00
  SASP-56                 1.00   1.00  0.00  0.00  0.00  0.00  0.00  0.00  0.00  0.00
  SASP-57                 1.00   1.00  0.00  0.00  0.00  0.00  0.00  0.00  0.00  0.00
  SASP-58                 1.00   1.00  0.00  0.00  0.00  0.00  0.00  0.00  0.00  0.00
  SASP-59                 1.00   1.00  0.00  0.00  0.00  0.00  0.00  0.00  0.00  0.00
  SASP-6                  1.00   0.00  0.00  0.00  0.00  0.00  0.00  1.00  0.00  0.00
  SASP-60                 1.00   1.00  0.00  0.00  0.00  0.00  0.00  0.00  0.00  0.00
  SASP-61                 1.00   1.00  0.00  0.00  0.00  0.00  0.00  0.00  0.00  0.00
  SASP-62                 1.00   1.00  0.00  0.00  0.00  0.00  0.00  0.00  0.00  0.00
  SASP-63                 1.00   1.00  0.00  0.00  0.00  0.00  0.00  0.00  0.00  0.00
  SASP-64                 1.00   1.00  0.00  0.00  0.00  0.00  0.00  0.00  0.00  0.00
  SASP-65                 1.00   1.00  0.00  0.00  0.00  0.00  0.00  0.00  0.00  0.00
  SASP-66                 1.00   1.00  0.00  0.00  0.00  0.00  0.00  0.00  0.00  0.00
  SASP-67                 1.00   1.00  0.00  0.00  0.00  0.00  0.00  0.00  0.00  0.00
  SASP-68                 1.79   1.00  0.00  0.00  0.00  0.00  0.00  0.00  0.00  0.00
  SASP-69                 1.00   1.00  0.00  0.00  0.00  0.00  0.00  0.00  0.00  0.00
  SASP-7                  1.00   0.00  0.00  0.00  0.00  0.00  0.00  1.00  0.00  0.00
  SASP-70                 1.00   1.00  0.00  0.00  0.00  0.00  0.00  0.00  0.00  0.00
  SASP-71                 1.00   0.00  0.00  0.00  0.00  0.00  0.00  1.00  0.00  0.00
  SASP-72                 1.00   0.00  0.00  0.00  0.00  0.00  0.00  1.00  0.00  0.00
  SASP-73                 1.00   0.00  0.00  0.00  0.00  0.00  0.00  1.00  0.00  0.00
  SASP-74                 1.00   1.00  0.00  0.00  0.00  0.00  0.00  0.00  0.00  0.00
  SASP-75                 1.00   1.00  0.00  0.00  0.00  0.00  0.00  0.00  0.00  0.00
  SASP-76                 1.00   1.00  0.00  0.00  0.00  0.00  0.00  0.00  0.00  0.00
  SASP-77                 1.00   1.00  0.00  0.00  0.00  0.00  0.00  0.00  0.00  0.00
  SASP-78                 1.00   1.00  0.00  0.00  0.00  0.00  0.00  0.00  0.00  0.00
  SASP-79                 1.00   1.00  0.00  0.00  0.00  0.00  0.00  0.00  0.00  0.00
  SASP-8                  1.00   0.02  0.43  0.00  0.56  0.00  0.00  0.00  0.00  0.00
  SASP-80                 1.00   1.00  0.00  0.00  0.00  0.00  0.00  0.00  0.00  0.00
  SASP-81                 1.00   1.00  0.00  0.00  0.00  0.00  0.00  0.00  0.00  0.00
  SASP-82                 1.00   1.00  0.00  0.00  0.00  0.00  0.00  0.00  0.00  0.00
  SASP-83                 1.60   1.00  0.00  0.00  0.00  0.00  0.00  0.00  0.00  0.00
  SASP-84                 1.00   1.00  0.00  0.00  0.00  0.00  0.00  0.00  0.00  0.00
  SASP-85                 1.00   0.03  0.53  0.00  0.44  0.00  0.00  0.00  0.00  0.00
  SASP-86                 1.00   0.00  0.00  0.00  0.00  0.00  0.00  1.00  0.00  0.00
  SASP-87                 1.00   0.00  0.00  0.00  0.00  0.00  0.00  1.00  0.00  0.00
  SASP-88                 1.00   0.00  0.00  0.00  0.00  0.00  0.00  1.00  0.00  0.00
  SASP-89                 1.00   0.14  0.00  0.00  0.00  0.00  0.00  0.86  0.00  0.00
  SASP-9                  1.00   1.00  0.00  0.00  0.00  0.00  0.00  0.00  0.00  0.00
  SASP-90                 1.00   0.22  0.00  0.00  0.00  0.00  0.00  0.78  0.00  0.00
  SASP-91                 1.00   0.27  0.00  0.00  0.00  0.00  0.00  0.73  0.00  0.00
  SASP-92                 1.00   0.31  0.00  0.00  0.00  0.00  0.00  0.69  0.00  0.00
  SASP-93                 1.00   0.34  0.00  0.00  0.00  0.00  0.00  0.66  0.00  0.00
  SASP-94                 1.00   0.37  0.00  0.00  0.00  0.00  0.00  0.63  0.00  0.00
  SASP-95                 1.00   0.40  0.00  0.00  0.00  0.00  0.00  0.60  0.00  0.00
  SASP-96                 1.00   1.00  0.00  0.00  0.00  0.00  0.00  0.00  0.00  0.00
  SASP-97                 1.00   0.22  0.00  0.00  0.00  0.00  0.00  0.78  0.00  0.00
  SASP-98                 1.00   0.22  0.00  0.00  0.00  0.00  0.00  0.78  0.00  0.00
  SASP-99                 1.00   0.00  0.00  0.00  0.00  0.00  0.00  1.00  0.00  0.00
  
  
  *************************
  Conduit Surcharge Summary
  *************************
  
  ----------------------------------------------------------------------------
                                                           Hours        Hours 
                         --------- Hours Full --------   Above Full   Capacity
  Conduit                Both Ends  Upstream  Dnstream   Normal Flow   Limited
  ----------------------------------------------------------------------------
  31                          5.52      5.52     12.00      0.01         0.01
  35                          0.01      0.25      0.01      3.60         0.01
  37                          0.01      0.01     12.00      0.01         0.01
  41                          7.69      7.69     12.00      0.01         0.01
  43                          0.01      0.01     12.00      0.01         0.01
  45                          3.15      3.27      3.30      0.44         0.29
  FSASP-1                     0.01      0.01      3.71      3.71         0.01
  LSP1                        0.01      0.01      8.84      0.01         0.01
  LSP3                        0.01      0.01      6.81      0.01         0.01
  SASP-100                    0.01      0.01      0.01      0.53         0.01
  SASP-101                    0.01      4.39      0.01      4.00         0.01
  SASP-118                    0.01      0.01      0.01      0.01         0.01
  SASP-120                    0.01      0.01      0.01      0.01         0.01
  SASP-121                    0.01      0.01      0.01      0.19         0.01
  SASP-122                    0.01      0.01      0.01      0.21         0.01
  SASP-123                    0.01      0.01      0.01      0.84         0.01
  SASP-126                    0.01      0.01      0.01      0.01         0.01
  SASP-127                    0.01      0.01      0.01      2.03         0.01
  SASP-128                    0.01      6.26      0.01      5.80         0.01
  SASP-129                    0.01      0.01      5.71      0.02         0.01
  SASP-140                    0.01      0.01      0.01      0.07         0.01
  SASP-141                    0.01      0.01      0.01      0.64         0.01
  SASP-142                    0.01      0.01      0.01      0.69         0.01
  SASP-143                    0.01      0.01      0.01      0.75         0.01
  SASP-144                    0.01      0.01      0.01      0.84         0.01
  SASP-145                    0.01      5.07      0.01      4.80         0.01
  SASP-146                    0.01      0.01      4.78      4.78         0.01
  SASP-15                     0.01      0.01      6.74      6.70         0.01
  SASP-43                     0.01      0.01      0.01      0.57         0.01
  SASP-47                     0.01      0.01      0.01      0.53         0.01
  SASP-51                     0.01      0.01      0.01      0.62         0.01
  SASP-52                     0.01      0.01      0.01      0.69         0.01
  SASP-53                     0.01      5.97      0.01      5.94         0.01
  SASP-6                      0.01      0.01      0.01      0.01         0.01
  SASP-7                      0.01      7.16      0.01      6.72         0.01
  SASP-72                     0.01      0.01      0.01      0.01         0.01
  SASP-73                     0.01      3.89      0.01      3.72         0.01
  SASP-8                      0.01      0.01      6.68      6.68         0.01
  SASP-85                     0.01      0.01      5.31      5.31         0.01
  SASP-86                     0.01      5.72      0.01      5.32         0.01
  SASP-87                     0.01      0.01      0.01      0.92         0.01
  SASP-88                     0.01      0.01      0.01      0.83         0.01
  SASP-89                     0.01      0.01      0.01      0.76         0.01
  SASP-90                     0.01      0.01      0.01      0.60         0.01
  SASP-91                     0.01      0.01      0.01      0.21         0.01
  SASP-92                     0.01      0.01      0.01      0.16         0.01
  SASP-93                     0.01      0.01      0.01      0.11         0.01
  SASP-94                     0.01      0.01      0.01      0.07         0.01
  SASP-95                     0.01      0.01      0.01      0.02         0.01
  SASP-98                     0.01      0.01      0.01      0.02         0.01
  SASP-99                     0.01      0.01      0.01      0.04         0.01
  
  
  ***************
  Pumping Summary
  ***************
  
  ---------------------------------------------------------------------------------------------------------
                                                  Min       Avg       Max     Total     Power    % Time Off
                        Percent   Number of      Flow      Flow      Flow    Volume     Usage    Pump Curve
  Pump                 Utilized   Start-Ups       GPM       GPM       GPM  10^6 gal     Kw-hr    Low   High
  ---------------------------------------------------------------------------------------------------------
  5000                     0.00           0      0.00      0.00      0.00     0.000      0.00    0.0    0.0
  5002                     0.00           0      0.00      0.00      0.00     0.000      0.00    0.0    0.0
  5004                     0.00           0      0.00      0.00      0.00     0.000      0.00    0.0    0.0
  5006                     0.00           0      0.00      0.00      0.00     0.000      0.00    0.0    0.0
  5008                     0.00           0      0.00      0.00      0.00     0.000      0.00    0.0    0.0
  5010                     1.02           1      0.00     95.13    101.72     0.001      0.15    0.0    0.0
  5012                     0.00           0      0.00      0.00      0.00     0.000      0.00    0.0    0.0
  5014                     3.80           8      0.00    155.37    323.98     0.004      0.56    0.0    0.0
  

  Analysis begun on:  Wed Jun 24 14:54:28 2026
  Analysis ended on:  Wed Jun 24 14:54:28 2026
  Total elapsed time: < 1 sec