
  EPA STORM WATER MANAGEMENT MODEL - VERSION 5.2 (Build 5.2.4)
  ------------------------------------------------------------

  Scenario Run :  BASE 
  
  ****************
  Analysis Options
  ****************
  Flow Units ............... CFS
  Process Models:
    Rainfall/Runoff ........ NO
    RDII ................... NO
    Snowmelt ............... NO
    Groundwater ............ NO
    Flow Routing ........... YES
    Ponding Allowed ........ YES
    Water Quality .......... NO
  Flow Routing Method ...... DYNWAVE
  Surcharge Method ......... EXTRAN
  Starting Date ............ 01/01/1988 00:00:00
  Ending Date .............. 01/01/1988 06:00:00
  Antecedent Dry Days ...... 0.0
  Report Time Step ......... 00:15:00
  Routing Time Step ........ 30.00 sec
  Variable Time Step ....... YES
  Maximum Trials ........... 8
  Number of Threads ........ 1
  Head Tolerance ........... 0.005000 ft
  
  
  *********************
  Control Actions Taken
  *********************

  
  **************************        Volume        Volume
  Flow Routing Continuity        acre-feet      10^6 gal
  **************************     ---------     ---------
  Dry Weather Inflow .......        19.834         6.463
  Wet Weather Inflow .......         0.000         0.000
  Groundwater Inflow .......         0.000         0.000
  RDII Inflow ..............         0.000         0.000
  External Inflow ..........       183.817        59.900
  External Outflow .........       170.230        55.472
  Flooding Loss ............        16.473         5.368
  Evaporation Loss .........         0.114         0.037
  Exfiltration Loss ........         0.000         0.000
  Initial Stored Volume ....         1.569         0.511
  Final Stored Volume ......        20.908         6.813
  Continuity Error (%) .....        -1.221
  
  
  *************************
  Highest Continuity Errors
  *************************
  Node 10309 (20.51%)
  Node 81309E (11.56%)
  Node 16009 (6.64%)
  Node 80608 (4.05%)
  Node 80608E (3.29%)
  
  
  ***************************
  Time-Step Critical Elements
  ***************************
  Link 1630 (47.55%)
  Link 1630B (20.52%)
  Link 1600 (18.75%)
  Link 1630C (8.53%)
  Link 1630A (1.01%)
  
  
  ********************************
  Highest Flow Instability Indexes
  ********************************
  Link OR1@82309D-82308D (114)
  Link 1600 (36)
  Link 8060A (29)
  Link 8040B (27)
  Link 8060B (27)
  
  
  *********************************
  Most Frequent Nonconverging Nodes
  *********************************
  Node 10208 (23.65%)
  Node 10208A (23.65%)
  Node 10208B (23.65%)
  Node 10208C (23.65%)
  Node 10208D (23.65%)
  
  
  *************************
  Routing Time Step Summary
  *************************
  Minimum Time Step           :     2.07 sec
  Average Time Step           :    18.24 sec
  Maximum Time Step           :    30.00 sec
  % of Time in Steady State   :     0.00
  Average Iterations per Step :     4.97
  % of Steps Not Converging   :    23.65
  Time Step Frequencies       :
     30.000 - 13.228 sec      :    90.96 %
     13.228 -  5.833 sec      :     7.52 %
      5.833 -  2.572 sec      :     1.35 %
      2.572 -  1.134 sec      :     0.17 %
      1.134 -  0.500 sec      :     0.00 %
  
  
  ******************
  Node Depth Summary
  ******************
  
  ---------------------------------------------------------------------------------
                                 Average  Maximum  Maximum  Time of Max    Reported
                                   Depth    Depth      HGL   Occurrence   Max Depth
  Node                 Type         Feet     Feet     Feet  days hr:min        Feet
  ---------------------------------------------------------------------------------
  10309                JUNCTION     6.86     9.40   111.00     0  03:07        9.40
  10309A               JUNCTION     1.97     2.70   104.30     0  01:51        2.70
  10309B               JUNCTION     1.87     2.86   104.46     0  01:46        2.86
  10309C               JUNCTION     1.85     2.86   104.46     0  03:00        2.86
  10309D               JUNCTION     1.94     2.75   104.35     0  03:06        2.75
  10309E               JUNCTION     1.40     2.15   103.75     0  02:40        2.15
  15009                JUNCTION     1.47     2.45   113.95     0  01:34        2.45
  15009A               JUNCTION     1.46     2.45   113.95     0  01:35        2.45
  15009B               JUNCTION     1.80     2.98   114.48     0  01:25        2.98
  15009C               JUNCTION     0.74     1.27   112.77     0  03:00        1.27
  15009D               JUNCTION     1.46     2.45   113.95     0  01:35        2.45
  15009E               JUNCTION     1.35     2.27   123.27     0  02:02        2.27
  16009                JUNCTION     6.53     9.05   111.05     0  03:07        8.99
  16009A               JUNCTION     2.21     2.94   104.94     0  01:42        2.94
  16009B               JUNCTION     1.99     3.05   105.05     0  01:38        3.05
  16009C               JUNCTION     1.94     3.05   105.05     0  03:00        3.05
  16009D               JUNCTION     2.07     2.94   104.94     0  03:03        2.94
  16009E               JUNCTION     1.50     2.30   104.30     0  02:27        2.30
  16109                JUNCTION     5.95     8.38   111.18     0  03:07        8.25
  16109A               JUNCTION     2.21     2.96   105.76     0  01:51        2.96
  16109B               JUNCTION     1.65     2.85   105.65     0  01:45        2.85
  16109C               JUNCTION     1.43     2.40   105.20     0  03:00        2.40
  16109D               JUNCTION     2.00     2.96   105.76     0  03:02        2.96
  16109E               JUNCTION     0.77     1.50   104.30     0  02:22        1.50
  80408                JUNCTION     7.38    13.40   133.40     0  00:27       13.40
  80408A               JUNCTION     6.94    13.40   138.00     0  00:27       13.40
  80408B               JUNCTION     3.90    11.56   136.16     0  00:49        9.55
  80408C               JUNCTION     1.17     2.35   126.95     0  00:18        2.26
  80408D               JUNCTION     4.40    12.76   137.36     0  02:11       12.75
  80408E               JUNCTION     0.56     1.13   125.73     0  00:19        1.06
  80608                JUNCTION     7.71    16.70   135.00     0  00:27       14.58
  80608A               JUNCTION     8.75    16.70   135.00     0  00:26       16.70
  80608B               JUNCTION     5.75    15.27   133.57     0  00:49       13.49
  80608C               JUNCTION     1.74     3.14   121.44     0  03:00        3.14
  80608D               JUNCTION     6.81    16.70   135.00     0  02:11       16.70
  80608E               JUNCTION     0.75     1.38   119.68     0  01:45        1.38
  81009                JUNCTION     1.44     2.85   131.05     0  00:32        2.84
  81009A               JUNCTION     1.44     2.85   131.05     0  00:32        2.84
  81009B               JUNCTION     1.44     2.86   131.06     0  00:32        2.85
  81009C               JUNCTION     1.45     2.85   131.05     0  00:32        2.84
  81009D               JUNCTION     1.44     2.85   131.05     0  00:32        2.84
  81009E               JUNCTION     1.65     3.13   131.33     0  01:28        3.13
  81309                JUNCTION     1.72     3.10   120.60     0  01:01        3.10
  81309A               JUNCTION     1.72     3.10   120.60     0  01:01        3.10
  81309B               JUNCTION     1.63     2.89   120.39     0  00:54        2.88
  81309C               JUNCTION     1.95     3.40   120.90     0  03:00        3.40
  81309D               JUNCTION     1.72     3.10   120.60     0  01:01        3.10
  81309E               JUNCTION     6.50    12.50   130.00     0  00:40       10.17
  82308D               JUNCTION     9.96    21.49   133.79     0  03:00       21.45
  82309                JUNCTION    10.68    25.74   138.04     0  00:26       19.89
  82309A               JUNCTION    11.75    25.91   138.21     0  00:26       21.86
  82309B               JUNCTION     7.65    18.19   130.49     0  00:49       16.77
  82309C               JUNCTION     2.20     3.75   116.05     0  01:21        3.75
  10208                OUTFALL      1.62     2.20    92.10     0  03:14        2.20
  10208A               OUTFALL      4.50     4.50    94.40     0  00:00        4.50
  10208B               OUTFALL      1.68     2.63    92.53     0  01:46        2.63
  10208C               OUTFALL      1.66     2.63    92.53     0  03:00        2.63
  10208D               OUTFALL      1.74     2.52    92.42     0  03:05        2.52
  10208E               OUTFALL      1.22     1.93    91.83     0  02:40        1.93
  82309D               STORAGE      9.94    21.31   133.61     0  03:00       21.30
  WETWELL              STORAGE      2.26     3.84   116.14     0  03:07        3.80
  
  
  *******************
  Node Inflow Summary
  *******************
  
  -------------------------------------------------------------------------------------------------
                                  Maximum  Maximum                  Lateral       Total        Flow
                                  Lateral    Total  Time of Max      Inflow      Inflow     Balance
                                   Inflow   Inflow   Occurrence      Volume      Volume       Error
  Node                 Type           CFS      CFS  days hr:min    10^6 gal    10^6 gal     Percent
  -------------------------------------------------------------------------------------------------
  10309                JUNCTION      0.00   117.67     0  03:08           0        9.99      25.798
  10309A               JUNCTION      0.00   122.40     0  01:41           0        11.1       2.252
  10309B               JUNCTION      0.00   135.17     0  01:35           0        10.8       0.243
  10309C               JUNCTION      0.00   135.00     0  03:00           0        10.9       0.201
  10309D               JUNCTION      0.00   121.91     0  03:03           0        10.5       0.384
  10309E               JUNCTION      0.00    62.08     0  02:27           0         4.6       0.805
  15009                JUNCTION      0.00    51.04     0  01:13           0        4.04       0.325
  15009A               JUNCTION      0.00    51.04     0  01:13           0        4.04       0.449
  15009B               JUNCTION      0.00    72.43     0  01:01           0        5.73       0.119
  15009C               JUNCTION      0.00   102.78     0  03:00           0        8.24      -0.025
  15009D               JUNCTION      0.00    51.01     0  01:13           0        4.03       0.296
  15009E               JUNCTION      0.00    62.26     0  01:39           0        4.68       0.351
  16009                JUNCTION      0.00   118.73     0  01:47           0        10.7       7.118
  16009A               JUNCTION      0.00   122.43     0  01:37           0        11.3       1.059
  16009B               JUNCTION      0.00   135.20     0  01:30           0        10.9       0.348
  16009C               JUNCTION      0.00   135.00     0  03:00           0        10.9       0.012
  16009D               JUNCTION      0.00   121.92     0  03:02           0        10.6       0.501
  16009E               JUNCTION      0.00    62.14     0  02:03           0        4.77       1.144
  16109                JUNCTION      0.00    73.80     0  01:15           0        7.11       0.000
  16109A               JUNCTION      0.00    71.99     0  01:50           0        7.37       0.000
  16109B               JUNCTION      0.00    64.72     0  01:56           0        5.17       0.000
  16109C               JUNCTION      0.00    32.21     0  03:00           0        2.67       0.000
  16109D               JUNCTION      0.00    71.95     0  03:00           0        6.61       0.000
  16109E               JUNCTION      0.00     9.03     0  01:12           0       0.123       0.000
  80408                JUNCTION     66.00    66.00     0  00:15        7.02        7.02       0.659
  80408A               JUNCTION     65.00    65.00     0  00:15        6.86        6.86       0.258
  80408B               JUNCTION     45.00    45.00     0  00:15        3.63        3.63      -0.188
  80408C               JUNCTION     45.00    45.00     0  00:15        3.63        3.63      -0.187
  80408D               JUNCTION     45.00    45.00     0  00:15        3.63        3.63      -0.192
  80408E               JUNCTION     11.25    11.25     0  00:15       0.908       0.908      -0.332
  80608                JUNCTION      0.00    66.04     0  00:21           0        4.26       4.219
  80608A               JUNCTION      0.00    66.27     0  00:19           0        5.84       2.961
  80608B               JUNCTION      0.00    46.46     0  00:22           0        3.64       1.705
  80608C               JUNCTION      0.00    46.46     0  00:22           0        3.64       0.305
  80608D               JUNCTION      0.00    46.44     0  00:22           0        3.64       1.842
  80608E               JUNCTION      0.00    11.67     0  00:27           0       0.911       3.406
  81009                JUNCTION     50.00    50.00     0  00:15        4.03        4.03      -0.452
  81009A               JUNCTION     50.00    50.00     0  00:15        4.03        4.03      -0.452
  81009B               JUNCTION     50.00    50.00     0  00:15        4.03        4.03      -0.457
  81009C               JUNCTION     50.00    50.00     0  00:15        4.03        4.03      -0.483
  81009D               JUNCTION     50.00    50.00     0  00:15        4.03        4.03      -0.452
  81009E               JUNCTION     50.00    50.00     0  00:15        4.03        4.03      -0.503
  81309                JUNCTION      0.00    53.78     0  00:40           0        4.05       0.445
  81309A               JUNCTION      0.00    53.78     0  00:40           0        4.05       0.446
  81309B               JUNCTION      0.00    53.44     0  00:42           0        4.05       0.600
  81309C               JUNCTION      0.00    53.88     0  00:40           0        4.05       0.969
  81309D               JUNCTION      0.00    53.79     0  00:40           0        4.05       0.448
  81309E               JUNCTION      0.00    53.65     0  00:30           0        4.06      13.068
  82308D               JUNCTION      0.00     3.05     0  00:14           0     0.00883       0.000
  82309                JUNCTION     40.00   100.05     0  00:25        3.23         7.3       2.621
  82309A               JUNCTION     40.00    99.13     0  00:25        3.23        7.54       2.383
  82309B               JUNCTION     40.00    85.39     0  00:50        3.23         6.8      -0.964
  82309C               JUNCTION     40.00    85.00     0  03:00        3.23        6.85      -0.114
  10208                OUTFALL       0.00    86.82     0  03:14           0        7.89       0.000
  10208A               OUTFALL       0.00   122.26     0  01:51           0        10.9       0.000
  10208B               OUTFALL       0.00   135.07     0  01:46           0        10.8       0.000
  10208C               OUTFALL       0.00   134.95     0  03:00           0        10.8       0.000
  10208D               OUTFALL       0.00   121.83     0  03:05           0        10.5       0.000
  10208E               OUTFALL       0.00    62.03     0  02:40           0        4.56       0.000
  82309D               STORAGE      40.00    85.47     0  00:49        3.23         6.6      -0.371
  WETWELL              STORAGE       4.00    15.85     0  02:19       0.323         1.2       1.875
  
  
  **********************
  Node Surcharge Summary
  **********************
  
  Surcharging occurs when water rises above the top of the highest conduit.
  ---------------------------------------------------------------------
                                               Max. Height   Min. Depth
                                   Hours       Above Crown    Below Rim
  Node                 Type      Surcharged           Feet         Feet
  ---------------------------------------------------------------------
  10309                JUNCTION        0.60          0.400        0.000
  16009                JUNCTION        0.07          0.054        8.946
  16109                JUNCTION        3.63          2.380       13.820
  80408                JUNCTION        2.98          9.400        0.000
  80408A               JUNCTION        2.70          9.400        0.000
  80408B               JUNCTION        2.23          7.558        1.842
  80408D               JUNCTION        2.17          8.757        0.643
  80608                JUNCTION        2.79         12.700        0.000
  80608A               JUNCTION        2.81         12.700        0.000
  80608B               JUNCTION        2.45         11.268        1.432
  80608D               JUNCTION        2.90         12.700        0.000
  81309E               JUNCTION        3.86          8.000        0.000
  82308D               JUNCTION        4.53         19.485       21.215
  82309                JUNCTION        3.00         19.543       16.957
  82309A               JUNCTION        2.92         19.709       16.791
  82309B               JUNCTION        2.61         11.995       24.505
  
  
  *********************
  Node Flooding Summary
  *********************
  
  Flooding refers to all water that overflows a node, whether it ponds or not.
  --------------------------------------------------------------------------
                                                             Total   Maximum
                                 Maximum   Time of Max       Flood    Ponded
                        Hours       Rate    Occurrence      Volume     Depth
  Node                 Flooded       CFS   days hr:min    10^6 gal      Feet
  --------------------------------------------------------------------------
  10309                   0.16     29.86      0  03:08       0.046     0.000
  80408                   2.70     47.02      0  00:28       2.723     0.000
  80408A                  2.63     42.41      0  00:27       1.002     0.000
  80608                   0.02     43.04      0  00:27       0.012     0.000
  80608A                  2.66     34.16      0  00:26       1.361     0.000
  80608D                  0.87     12.71      0  03:00       0.210     0.000
  81309E                  0.02     40.83      0  00:40       0.014     0.000
  
  
  **********************
  Storage Volume Summary
  **********************
  
  ------------------------------------------------------------------------------------------------
                         Average    Avg   Evap  Exfil     Maximum    Max    Time of Max    Maximum
                          Volume   Pcnt   Pcnt   Pcnt      Volume   Pcnt     Occurrence    Outflow
  Storage Unit          1000 ftł   Full   Loss   Loss    1000 ftł   Full    days hr:min        CFS
  ------------------------------------------------------------------------------------------------
  82309D                   7.951   23.3    0.0    0.0      17.047   49.9       0  03:00      71.95
  WETWELL                 22.630   10.8    0.0    0.0      38.354   18.3       0  03:07      12.00
  
  
  ***********************
  Outfall Loading Summary
  ***********************
  
  -----------------------------------------------------------
                         Flow       Avg       Max       Total
                         Freq      Flow      Flow      Volume
  Outfall Node           Pcnt       CFS       CFS    10^6 gal
  -----------------------------------------------------------
  10208                 94.76     52.48     86.82       7.886
  10208A                94.34     73.18    122.26      10.892
  10208B                95.52     71.44    135.07      10.805
  10208C                97.47     70.04    134.95      10.825
  10208D                94.76     69.56    121.83      10.502
  10208E                89.44     32.25     62.03       4.557
  -----------------------------------------------------------
  System                94.38    368.95    661.69      55.468
  
  
  ********************
  Link Flow Summary
  ********************
  
  -----------------------------------------------------------------------------
                                 Maximum  Time of Max   Maximum    Max/    Max/
                                  |Flow|   Occurrence   |Veloc|    Full    Full
  Link                 Type          CFS  days hr:min    ft/sec    Flow   Depth
  -----------------------------------------------------------------------------
  1030                 CONDUIT     86.82     0  03:14      0.92    0.36    0.62
  1030A                CONDUIT    122.26     0  01:51      3.14    0.04    0.40
  1030B                CONDUIT    135.07     0  01:46      5.98    0.04    0.30
  1030C                CONDUIT    134.95     0  03:00      5.98    0.04    0.30
  1030D                CONDUIT    121.83     0  03:05      5.83    0.04    0.29
  1030E                CONDUIT     62.03     0  02:40      4.97    0.02    0.23
  1570                 CONDUIT     50.49     0  01:35      3.26    0.41    0.72
  1570A                CONDUIT     50.48     0  01:35      4.36    0.41    0.49
  1570C                CONDUIT    102.78     0  03:00     11.85    0.12    0.39
  1570D                CONDUIT     50.47     0  01:35      4.48    0.41    0.49
  1570E                CONDUIT     62.14     0  02:03      6.86    0.36    0.41
  1600                 CONDUIT     68.37     0  01:47      6.01    0.47    1.00
  1600A                CONDUIT     71.99     0  01:56      6.04    0.49    0.49
  1600B                CONDUIT     64.71     0  01:53      4.69    0.44    0.49
  1600C                CONDUIT     32.33     0  03:06      2.68    0.22    0.45
  1600D                CONDUIT     71.92     0  03:02      5.20    0.49    0.49
  1600E                CONDUIT      9.03     0  01:12      2.13    0.06    0.32
  1602                 CONDUIT     73.80     0  01:15      4.28    1.70    1.00
  1602A                CONDUIT     71.99     0  01:50      4.33    1.66    0.80
  1602B                CONDUIT     64.72     0  01:56      4.04    1.49    0.79
  1602C                CONDUIT     32.21     0  03:00      2.54    0.74    0.62
  1602D                CONDUIT     71.95     0  03:00      4.29    1.66    0.80
  1602E                CONDUIT      0.00     0  00:06      0.13    0.00    0.53
  1630                 CONDUIT    117.67     0  03:08      5.40    0.05    1.00
  1630A                CONDUIT    122.40     0  01:41      8.50    0.05    0.31
  1630B                CONDUIT    135.17     0  01:35      5.77    0.06    0.33
  1630C                CONDUIT    135.00     0  03:00      5.63    0.06    0.33
  1630D                CONDUIT    121.91     0  03:03      5.51    0.05    0.32
  1630E                CONDUIT     62.08     0  02:27      4.97    0.03    0.25
  8040                 CONDUIT     66.04     0  00:21      6.27    1.46    1.00
  8040A                CONDUIT     66.27     0  00:19      7.82    0.90    1.00
  8040B                CONDUIT     46.46     0  00:22      7.23    0.63    1.00
  8040C                CONDUIT     46.46     0  00:22      7.23    0.63    0.68
  8040D                CONDUIT     46.44     0  00:22      7.23    0.63    1.00
  8040E                CONDUIT     11.67     0  00:27      5.28    0.16    0.30
  8060                 CONDUIT     60.05     0  00:25      5.40    1.13    1.00
  8060A                CONDUIT     59.13     0  00:25      5.35    1.11    1.00
  8060B                CONDUIT     47.05     0  03:11      4.96    0.88    1.00
  8060C                CONDUIT     45.00     0  03:00      5.27    0.84    0.64
  8060D                CONDUIT     45.47     0  00:49      4.88    0.85    1.00
  8060E                CONDUIT     11.85     0  02:19      3.63    0.22    0.36
  8100                 CONDUIT     53.78     0  00:40      6.48    0.69    0.64
  8100A                CONDUIT     53.78     0  00:40      6.48    0.69    0.64
  8100B                CONDUIT     53.44     0  00:42      6.57    0.68    0.61
  8100C                CONDUIT     53.88     0  00:40      6.54    0.69    0.67
  8100D                CONDUIT     53.79     0  00:40      6.48    0.69    0.64
  8100E                CONDUIT     53.65     0  00:30      6.43    0.69    0.85
  8130                 CONDUIT     51.04     0  01:13      5.62    0.72    0.61
  8130A                CONDUIT     51.04     0  01:13      5.63    0.72    0.61
  8130B                CONDUIT     51.90     0  01:01      4.90    0.74    0.64
  8130C                CONDUIT     50.00     0  03:00      6.07    0.71    0.52
  8130D                CONDUIT     51.01     0  01:13      5.54    0.72    0.61
  8130E                CONDUIT     50.26     0  01:39      4.46    0.93    0.75
  CONTROLLINK          CONDUIT     70.55     0  01:25      5.29    0.57    0.55
  PUMP1                PUMP         4.00     0  01:26              1.00
  PUMP2                PUMP         4.00     0  01:26              1.00
  PUMP3                PUMP         4.00     0  01:26              1.00
  CONTROLORIFICE       ORIFICE     21.78     0  00:49                          
  OR1@82309D-82308D    ORIFICE      4.72     0  04:46                      1.00
  WEIR1@82309C-15009C  WEIR        52.81     0  01:21                      0.51
  
  
  ***************************
  Flow Classification Summary
  ***************************
  
  -------------------------------------------------------------------------------------
                      Adjusted    ---------- Fraction of Time in Flow Class ---------- 
                       /Actual         Up    Down  Sub   Sup   Up    Down  Norm  Inlet 
  Conduit               Length    Dry  Dry   Dry   Crit  Crit  Crit  Crit  Ltd   Ctrl  
  -------------------------------------------------------------------------------------
  1030                    1.00   0.04  0.00  0.00  0.96  0.00  0.00  0.00  0.00  0.00
  1030A                   1.00   0.00  0.06  0.00  0.94  0.00  0.00  0.00  0.94  0.00
  1030B                   1.00   0.03  0.00  0.00  0.97  0.00  0.00  0.00  0.00  0.00
  1030C                   1.00   0.02  0.00  0.00  0.98  0.00  0.00  0.00  0.00  0.00
  1030D                   1.00   0.04  0.00  0.00  0.96  0.00  0.00  0.00  0.00  0.00
  1030E                   1.00   0.11  0.00  0.00  0.89  0.00  0.00  0.00  0.00  0.00
  1570                    1.00   0.00  0.00  0.00  1.00  0.00  0.00  0.00  0.95  0.00
  1570A                   1.00   0.00  0.00  0.00  1.00  0.00  0.00  0.00  0.96  0.00
  1570C                   5.02   0.00  0.00  0.00  0.42  0.58  0.00  0.00  1.00  0.00
  1570D                   1.00   0.00  0.00  0.00  1.00  0.00  0.00  0.00  0.93  0.00
  1570E                   1.00   0.00  0.09  0.00  0.85  0.06  0.00  0.00  0.70  0.00
  1600                    1.00   0.00  0.00  0.00  0.97  0.03  0.00  0.00  0.01  0.00
  1600A                   1.00   0.00  0.00  0.00  0.97  0.02  0.00  0.00  0.34  0.00
  1600B                   1.00   0.00  0.00  0.00  1.00  0.00  0.00  0.00  0.28  0.00
  1600C                   1.00   0.00  0.00  0.00  1.00  0.00  0.00  0.00  0.40  0.00
  1600D                   1.00   0.00  0.00  0.00  0.97  0.03  0.00  0.00  0.30  0.00
  1600E                   1.00   0.00  0.00  0.00  1.00  0.00  0.00  0.00  0.29  0.00
  1602                    1.00   0.00  0.00  0.00  1.00  0.00  0.00  0.00  0.33  0.00
  1602A                   1.00   0.00  0.00  0.00  1.00  0.00  0.00  0.00  0.00  0.00
  1602B                   1.00   0.00  0.00  0.00  1.00  0.00  0.00  0.00  0.34  0.00
  1602C                   1.00   0.00  0.00  0.00  1.00  0.00  0.00  0.00  0.03  0.00
  1602D                   1.00   0.00  0.00  0.00  1.00  0.00  0.00  0.00  0.00  0.00
  1602E                   1.00   0.00  0.00  0.00  1.00  0.00  0.00  0.00  0.00  0.00
  1630                    1.00   0.00  0.00  0.00  0.97  0.03  0.00  0.00  0.00  0.00
  1630A                   1.00   0.00  0.00  0.00  0.94  0.06  0.00  0.00  0.00  0.00
  1630B                   1.00   0.00  0.00  0.00  0.95  0.05  0.00  0.00  0.26  0.00
  1630C                   1.00   0.00  0.00  0.00  0.97  0.03  0.00  0.00  0.31  0.00
  1630D                   1.00   0.00  0.00  0.00  0.95  0.04  0.00  0.00  0.16  0.00
  1630E                   1.00   0.00  0.00  0.00  0.96  0.04  0.00  0.00  0.16  0.00
  8040                    1.00   0.00  0.00  0.00  0.98  0.02  0.00  0.00  0.00  0.00
  8040A                   1.00   0.00  0.00  0.00  0.97  0.03  0.00  0.00  0.48  0.00
  8040B                   1.00   0.00  0.00  0.00  0.96  0.04  0.00  0.00  0.53  0.00
  8040C                   1.00   0.00  0.00  0.00  0.96  0.04  0.00  0.00  0.94  0.00
  8040D                   1.00   0.00  0.00  0.00  0.96  0.04  0.00  0.00  0.49  0.00
  8040E                   1.00   0.00  0.00  0.00  0.95  0.05  0.00  0.00  0.92  0.00
  8060                    1.00   0.00  0.00  0.00  0.60  0.00  0.00  0.40  0.07  0.00
  8060A                   1.00   0.00  0.00  0.00  0.61  0.00  0.00  0.39  0.08  0.00
  8060B                   1.00   0.00  0.00  0.00  0.54  0.00  0.00  0.46  0.09  0.00
  8060C                   1.00   0.00  0.00  0.00  0.00  0.00  0.00  1.00  0.00  0.00
  8060D                   1.00   0.00  0.00  0.00  0.70  0.00  0.00  0.30  0.12  0.00
  8060E                   1.00   0.00  0.00  0.00  0.42  0.00  0.00  0.58  0.31  0.00
  8100                    1.00   0.00  0.00  0.00  0.96  0.04  0.00  0.00  0.89  0.00
  8100A                   1.00   0.00  0.00  0.00  0.96  0.04  0.00  0.00  0.89  0.00
  8100B                   1.00   0.00  0.00  0.00  0.96  0.04  0.00  0.00  0.88  0.00
  8100C                   1.00   0.00  0.00  0.00  0.96  0.04  0.00  0.00  0.89  0.00
  8100D                   1.00   0.00  0.00  0.00  0.96  0.04  0.00  0.00  0.89  0.00
  8100E                   1.00   0.00  0.00  0.00  0.96  0.04  0.00  0.00  0.50  0.00
  8130                    1.00   0.00  0.00  0.00  0.97  0.03  0.00  0.00  0.45  0.00
  8130A                   1.00   0.00  0.00  0.00  0.97  0.03  0.00  0.00  0.45  0.00
  8130B                   1.00   0.00  0.00  0.00  1.00  0.00  0.00  0.00  0.87  0.00
  8130C                   1.00   0.00  0.00  0.00  0.87  0.13  0.00  0.00  0.00  0.00
  8130D                   1.00   0.00  0.00  0.00  0.97  0.03  0.00  0.00  0.45  0.00
  8130E                   1.00   0.00  0.10  0.00  0.90  0.00  0.00  0.00  0.00  0.00
  CONTROLLINK             1.00   0.00  0.00  0.00  0.98  0.02  0.00  0.00  0.89  0.00
  
  
  *************************
  Conduit Surcharge Summary
  *************************
  
  ----------------------------------------------------------------------------
                                                           Hours        Hours 
                         --------- Hours Full --------   Above Full   Capacity
  Conduit                Both Ends  Upstream  Dnstream   Normal Flow   Limited
  ----------------------------------------------------------------------------
  1030                        0.01      0.60      0.01      0.01         0.01
  1570                        0.01      0.01      4.59      0.01         0.01
  1600                        3.63      3.63      4.45      0.01         0.01
  1602                        2.20      3.28      4.54      2.78         1.75
  1602A                       0.01      3.19      0.01      3.13         0.01
  1602B                       0.01      2.86      0.01      2.74         0.01
  1602D                       0.01      3.68      0.01      3.53         0.01
  1630                        0.06      0.06      0.60      0.01         0.01
  8040                        2.75      2.98      2.78      0.26         0.01
  8040A                       2.70      2.70      2.81      0.01         0.01
  8040B                       2.23      2.23      2.44      0.01         0.01
  8040D                       2.17      2.17      2.90      0.01         0.01
  8060                        2.78      2.78      3.00      0.07         0.01
  8060A                       2.81      2.81      2.92      0.06         0.01
  8060B                       2.44      2.44      2.61      0.01         0.01
  8060D                       2.90      2.90      3.48      0.01         0.01
  8100E                       0.01      0.01      3.85      0.01         0.01
  8130E                       0.01      0.01      3.85      0.01         0.01
  
  
  ***************
  Pumping Summary
  ***************
  
  ---------------------------------------------------------------------------------------------------------
                                                  Min       Avg       Max     Total     Power    % Time Off
                        Percent   Number of      Flow      Flow      Flow    Volume     Usage    Pump Curve
  Pump                 Utilized   Start-Ups       CFS       CFS       CFS  10^6 gal     Kw-hr    Low   High
  ---------------------------------------------------------------------------------------------------------
  PUMP1                   57.07           1      0.00      4.00      4.00     0.369      8.58    0.0  100.0
  PUMP2                   57.07           1      0.00      4.00      4.00     0.369      8.58    0.0  100.0
  PUMP3                   57.07           1      0.00      4.00      4.00     0.369      8.58    0.0  100.0
  

  Analysis begun on:  Wed Jun 24 14:55:02 2026
  Analysis ended on:  Wed Jun 24 14:55:02 2026
  Total elapsed time: < 1 sec