
  EPA STORM WATER MANAGEMENT MODEL - VERSION 5.2 (Build 5.2.4)
  ------------------------------------------------------------

  WARNING 08: elevation drop exceeds length for Conduit H-21_H-SPS25
  WARNING 04: minimum elevation drop used for Conduit KAM_DOLE_FM
  WARNING 04: minimum elevation drop used for Conduit S-30/29-H
  WARNING 04: minimum elevation drop used for Conduit S-74/83-H
  
  ****************
  Analysis Options
  ****************
  Flow Units ............... GPM
  Process Models:
    Rainfall/Runoff ........ NO
    RDII ................... NO
    Snowmelt ............... NO
    Groundwater ............ NO
    Flow Routing ........... YES
    Ponding Allowed ........ YES
    Water Quality .......... NO
  Flow Routing Method ...... DYNWAVE
  Surcharge Method ......... EXTRAN
  Starting Date ............ 01/01/2002 00:00:00
  Ending Date .............. 01/01/2002 12:00:00
  Antecedent Dry Days ...... 0.0
  Report Time Step ......... 00:15:00
  Routing Time Step ........ 10.00 sec
  Variable Time Step ....... NO
  Maximum Trials ........... 8
  Number of Threads ........ 8
  Head Tolerance ........... 0.001000 ft
  
  
  **************************        Volume        Volume
  Flow Routing Continuity        acre-feet      10^6 gal
  **************************     ---------     ---------
  Dry Weather Inflow .......         0.196         0.064
  Wet Weather Inflow .......         0.000         0.000
  Groundwater Inflow .......         0.000         0.000
  RDII Inflow ..............         0.000         0.000
  External Inflow ..........         0.000         0.000
  External Outflow .........         0.000         0.000
  Flooding Loss ............         0.171         0.056
  Evaporation Loss .........         0.000         0.000
  Exfiltration Loss ........         0.000         0.000
  Initial Stored Volume ....         0.012         0.004
  Final Stored Volume ......         0.037         0.012
  Continuity Error (%) .....        -0.421
  
  
  *************************
  Highest Continuity Errors
  *************************
  Node S-SPS265-H (69.28%)
  Node H-12 (39.03%)
  Node S-SPS217-H (37.07%)
  Node KAM_DOLE (19.84%)
  Node KAM_DOLE_CHAM (-18.27%)
  
  
  ********************************
  Highest Flow Instability Indexes
  ********************************
  All links are stable.
  
  
  *********************************
  Most Frequent Nonconverging Nodes
  *********************************
  Node KAM_DOLE_OUT (0.58%)
  Node H-021 (0.51%)
  Node H-022 (0.30%)
  Node S-SPS255-H (0.05%)
  
  
  *************************
  Routing Time Step Summary
  *************************
  Minimum Time Step           :    10.00 sec
  Average Time Step           :    10.00 sec
  Maximum Time Step           :    10.00 sec
  % of Time in Steady State   :     0.00
  Average Iterations per Step :     2.11
  % of Steps Not Converging   :     0.58
  
  
  ******************
  Node Depth Summary
  ******************
  
  ---------------------------------------------------------------------------------
                                 Average  Maximum  Maximum  Time of Max    Reported
                                   Depth    Depth      HGL   Occurrence   Max Depth
  Node                 Type         Feet     Feet     Feet  days hr:min        Feet
  ---------------------------------------------------------------------------------
  H-021                JUNCTION     3.18     4.00   945.50     0  00:00        4.00
  H-022                JUNCTION     2.10     2.96   945.55     0  03:43        2.95
  H-023                JUNCTION     0.10     0.18   955.40     0  04:46        0.18
  H-024                JUNCTION     0.10     0.18   965.40     0  04:45        0.18
  H-025                JUNCTION     0.11     0.21   970.29     0  04:44        0.21
  H-026                JUNCTION     0.14     0.27   973.49     0  04:43        0.27
  H-027                JUNCTION     0.17     0.31   975.27     0  04:42        0.31
  H-028                JUNCTION     0.16     0.30   976.99     0  04:40        0.30
  H-029                JUNCTION     0.16     0.30   978.34     0  04:38        0.30
  H-10                 JUNCTION     0.07     0.15  1118.94     0  03:48        0.15
  H-100                JUNCTION     0.01     0.02  1096.21     0  06:29        0.02
  H-101                JUNCTION     0.01     0.02  1098.53     0  08:23        0.02
  H-102                JUNCTION     0.02     0.03  1100.46     0  06:20        0.03
  H-103                JUNCTION     0.10     0.18  1088.88     0  04:05        0.18
  H-104                JUNCTION     0.09     0.17  1089.62     0  04:04        0.17
  H-105                JUNCTION     0.03     0.06  1093.12     0  04:01        0.06
  H-106                JUNCTION     0.04     0.08  1094.05     0  04:00        0.08
  H-107                JUNCTION     0.04     0.07  1096.04     0  04:00        0.07
  H-108                JUNCTION     0.04     0.07  1096.38     0  04:15        0.07
  H-109                JUNCTION     0.03     0.06  1097.56     0  04:13        0.06
  H-110                JUNCTION     0.03     0.05  1100.00     0  04:11        0.05
  H-111                JUNCTION     0.04     0.07  1100.91     0  04:09        0.07
  H-112                JUNCTION     0.02     0.04  1108.76     0  04:05        0.04
  H-113                JUNCTION     0.02     0.04  1111.72     0  04:03        0.04
  H-114                JUNCTION     0.05     0.11  1113.48     0  04:01        0.11
  H-115                JUNCTION     0.01     0.02  1116.32     0  04:00        0.02
  H-116                JUNCTION     0.00     0.02  1123.82     0  03:02        0.02
  H-117                JUNCTION     0.02     0.05  1114.13     0  04:00        0.05
  H-118                JUNCTION     0.01     0.03  1124.75     0  04:00        0.03
  H-119                JUNCTION     0.00     0.02  1129.25     0  03:27        0.02
  H-12                 JUNCTION     0.27     0.59  1113.86     0  12:00        0.59
  H-120                JUNCTION     0.02     0.03  1125.49     0  07:05        0.03
  H-121                JUNCTION     0.01     0.02  1129.32     0  08:29        0.02
  H-122                JUNCTION     0.01     0.02  1133.15     0  08:08        0.02
  H-123                JUNCTION     0.08     0.15  1090.47     0  04:03        0.15
  H-124                JUNCTION     0.08     0.14  1091.45     0  04:02        0.14
  H-125                JUNCTION     0.07     0.15  1092.15     0  04:00        0.15
  H-126                JUNCTION     0.07     0.14  1093.41     0  04:00        0.14
  H-127                JUNCTION     0.05     0.10  1096.03     0  04:00        0.10
  H-128                JUNCTION     0.05     0.10  1100.83     0  04:00        0.10
  H-129                JUNCTION     0.05     0.09  1104.76     0  04:00        0.09
  H-13                 JUNCTION     0.01     0.02  1119.64     0  04:00        0.02
  H-130                JUNCTION     0.06     0.10  1109.36     0  04:00        0.10
  H-131                JUNCTION     0.05     0.10  1111.75     0  04:00        0.10
  H-132                JUNCTION     0.06     0.11  1113.50     0  04:00        0.11
  H-133                JUNCTION     0.05     0.11  1114.74     0  04:00        0.11
  H-134                JUNCTION     0.06     0.11  1116.88     0  04:00        0.11
  H-135                JUNCTION     0.05     0.10  1118.13     0  04:00        0.10
  H-136                JUNCTION     0.05     0.09  1119.43     0  04:00        0.09
  H-137                JUNCTION     0.03     0.06  1121.82     0  04:00        0.06
  H-138                JUNCTION     0.03     0.06  1124.52     0  04:00        0.06
  H-139                JUNCTION     0.01     0.02  1128.62     0  04:00        0.02
  H-14                 JUNCTION     0.03     0.06  1116.08     0  03:59        0.06
  H-140                JUNCTION     0.00     0.01  1139.21     0  05:00        0.01
  H-141                JUNCTION     0.00     0.02  1136.42     0  04:00        0.02
  H-142                JUNCTION     0.02     0.03  1129.40     0  04:03        0.03
  H-143                JUNCTION     0.02     0.04  1126.84     0  04:04        0.03
  H-144                JUNCTION     0.04     0.06  1126.25     0  04:00        0.06
  H-145                JUNCTION     0.02     0.03  1129.65     0  03:33        0.03
  H-146                JUNCTION     0.01     0.02  1134.13     0  03:23        0.02
  H-147                JUNCTION     0.01     0.02  1135.65     0  03:05        0.02
  H-148                JUNCTION     0.04     0.06  1125.43     0  04:00        0.06
  H-149                JUNCTION     0.04     0.06  1122.58     0  04:00        0.06
  H-15                 JUNCTION     0.05     0.10  1116.84     0  04:00        0.10
  H-150                JUNCTION     0.03     0.05  1119.74     0  04:00        0.05
  H-151                JUNCTION     0.05     0.08  1114.28     0  03:37        0.08
  H-152                JUNCTION     0.04     0.06  1112.18     0  04:00        0.06
  H-153                JUNCTION     0.06     0.09  1107.49     0  04:00        0.09
  H-154                JUNCTION     0.05     0.08  1112.02     0  04:00        0.08
  H-155                JUNCTION     0.02     0.04  1115.58     0  04:00        0.04
  H-156                JUNCTION     0.01     0.03  1124.08     0  03:24        0.03
  H-157                JUNCTION     0.02     0.04  1128.54     0  03:14        0.04
  H-158                JUNCTION     0.01     0.02  1130.12     0  03:37        0.02
  H-159                JUNCTION     0.06     0.09  1113.68     0  03:37        0.09
  H-16                 JUNCTION     0.02     0.05  1118.18     0  03:57        0.05
  H-160                JUNCTION     0.05     0.08  1114.65     0  04:00        0.08
  H-161                JUNCTION     0.04     0.07  1118.27     0  04:00        0.07
  H-162                JUNCTION     0.03     0.06  1123.32     0  04:00        0.06
  H-163                JUNCTION     0.02     0.05  1129.19     0  04:00        0.05
  H-164                JUNCTION     0.02     0.05  1134.97     0  04:00        0.05
  H-165                JUNCTION     0.02     0.05  1138.47     0  04:00        0.05
  H-166                JUNCTION     0.01     0.02  1141.71     0  04:00        0.02
  H-17                 JUNCTION     0.02     0.03  1121.32     0  03:55        0.03
  H-18                 JUNCTION     0.06     0.14  1120.10     0  03:47        0.14
  H-19                 JUNCTION     0.07     0.15  1121.15     0  03:32        0.14
  H-20                 JUNCTION     0.04     0.08  1124.99     0  03:47        0.08
  H-21                 JUNCTION     0.01     0.02  1126.11     0  04:00        0.02
  H-210                JUNCTION     0.16     0.30   978.61     0  04:37        0.30
  H-211                JUNCTION     0.28     0.50   979.06     0  04:36        0.50
  H-212                JUNCTION     0.11     0.19   986.00     0  04:34        0.19
  H-213                JUNCTION     0.12     0.21   991.02     0  04:33        0.21
  H-214                JUNCTION     0.11     0.20   997.26     0  04:33        0.20
  H-215                JUNCTION     0.11     0.20  1003.51     0  04:32        0.20
  H-216                JUNCTION     0.15     0.27  1005.83     0  04:31        0.27
  H-217                JUNCTION     0.28     0.51  1006.32     0  04:30        0.51
  H-218                JUNCTION     0.14     0.25  1008.31     0  04:28        0.25
  H-219                JUNCTION     0.10     0.19  1016.00     0  04:27        0.19
  H-22                 JUNCTION     0.04     0.09  1128.71     0  03:46        0.09
  H-220                JUNCTION     0.17     0.32  1017.38     0  04:26        0.32
  H-221                JUNCTION     0.13     0.25  1019.81     0  04:24        0.24
  H-222                JUNCTION     0.11     0.21  1024.77     0  04:23        0.20
  H-223                JUNCTION     0.15     0.27  1026.83     0  04:22        0.27
  H-224                JUNCTION     0.14     0.26  1028.82     0  04:21        0.26
  H-225                JUNCTION     0.14     0.26  1030.82     0  04:20        0.26
  H-226                JUNCTION     0.14     0.26  1032.82     0  04:19        0.26
  H-227                JUNCTION     0.15     0.26  1034.82     0  04:18        0.26
  H-228                JUNCTION     0.15     0.26  1036.82     0  04:17        0.26
  H-229                JUNCTION     0.12     0.21  1041.77     0  04:16        0.21
  H-23                 JUNCTION     0.01     0.02  1131.44     0  03:48        0.02
  H-230                JUNCTION     0.12     0.21  1046.77     0  04:15        0.21
  H-231                JUNCTION     0.09     0.16  1062.34     0  04:14        0.16
  H-232                JUNCTION     0.10     0.17  1073.03     0  04:13        0.17
  H-24                 JUNCTION     0.05     0.09  1129.77     0  03:44        0.09
  H-25                 JUNCTION     0.02     0.03  1133.28     0  03:25        0.03
  H-26                 JUNCTION     0.05     0.09  1135.45     0  03:44        0.09
  H-27                 JUNCTION     0.05     0.10  1142.00     0  03:20        0.10
  H-28                 JUNCTION     0.06     0.12  1142.71     0  03:14        0.12
  H-29                 JUNCTION     0.06     0.11  1143.41     0  04:00        0.11
  H-30                 JUNCTION     0.12     0.21  1143.51     0  04:00        0.21
  H-31                 JUNCTION     0.05     0.10  1144.66     0  03:22        0.10
  H-32                 JUNCTION     0.04     0.08  1108.21     0  03:21        0.08
  H-33                 JUNCTION     0.09     0.20  1107.60     0  04:00        0.20
  H-34                 JUNCTION     0.07     0.15  1108.15     0  04:01        0.15
  H-35                 JUNCTION     0.09     0.18  1106.58     0  04:00        0.18
  H-36                 JUNCTION     0.01     0.02  1109.52     0  09:00        0.02
  H-37                 JUNCTION     0.09     0.20  1105.00     0  04:00        0.20
  H-38                 JUNCTION     0.01     0.04  1105.51     0  04:00        0.04
  H-39                 JUNCTION     0.01     0.03  1107.13     0  04:00        0.03
  H-40                 JUNCTION     0.09     0.19  1104.30     0  04:01        0.19
  H-41                 JUNCTION     0.02     0.04  1107.60     0  04:00        0.04
  H-42                 JUNCTION     0.01     0.03  1107.93     0  03:35        0.03
  H-43                 JUNCTION     0.02     0.05  1105.37     0  04:00        0.05
  H-44                 JUNCTION     0.08     0.13  1104.09     0  04:00        0.13
  H-45                 JUNCTION     0.06     0.11  1102.87     0  04:00        0.11
  H-46                 JUNCTION     0.02     0.05  1103.68     0  04:00        0.05
  H-47                 JUNCTION     0.02     0.05  1107.86     0  04:00        0.05
  H-48                 JUNCTION     0.02     0.04  1110.20     0  03:59        0.04
  H-48A                JUNCTION     0.07     0.13  1108.03     0  04:00        0.13
  H-49                 JUNCTION     0.01     0.03  1115.22     0  03:53        0.03
  H-5                  JUNCTION     0.29     0.41  1117.90     0  04:00        0.41
  H-50                 JUNCTION     0.07     0.12  1098.39     0  04:00        0.12
  H-51                 JUNCTION     0.01     0.02  1100.02     0  06:18        0.02
  H-52                 JUNCTION     0.02     0.02  1101.28     0  08:06        0.02
  H-53                 JUNCTION     0.00     0.01  1100.91     0  06:34        0.01
  H-54                 JUNCTION     0.13     0.23  1097.58     0  04:03        0.23
  H-55                 JUNCTION     0.10     0.21  1098.14     0  04:05        0.20
  H-56                 JUNCTION     0.09     0.19  1099.48     0  04:04        0.18
  H-57                 JUNCTION     0.09     0.19  1102.07     0  04:03        0.19
  H-58                 JUNCTION     0.10     0.18  1095.77     0  04:03        0.18
  H-59                 JUNCTION     0.10     0.18  1093.01     0  04:04        0.18
  H-6                  JUNCTION     0.06     0.13  1111.32     0  04:00        0.13
  H-60                 JUNCTION     0.01     0.01  1096.01     0  07:00        0.01
  H-61                 JUNCTION     0.10     0.18  1091.52     0  04:05        0.18
  H-62                 JUNCTION     0.02     0.02  1091.92     0  09:00        0.02
  H-64                 JUNCTION     0.10     0.18  1088.10     0  04:06        0.18
  H-65                 JUNCTION     0.03     0.05  1092.80     0  09:00        0.05
  H-66                 JUNCTION     0.04     0.05  1093.86     0  09:00        0.05
  H-67                 JUNCTION     0.03     0.04  1096.80     0  04:00        0.04
  H-68                 JUNCTION     0.01     0.02  1100.55     0  03:57        0.02
  H-69                 JUNCTION     0.03     0.04  1098.04     0  08:08        0.04
  H-7                  JUNCTION     0.28     0.39  1118.06     0  04:00        0.39
  H-70                 JUNCTION     0.02     0.03  1099.61     0  08:59        0.03
  H-71                 JUNCTION     0.00     0.01  1101.57     0  06:40        0.01
  H-73                 JUNCTION     0.15     0.27  1082.27     0  04:08        0.27
  H-74                 JUNCTION     0.25     0.39  1080.79     0  04:08        0.39
  H-75                 JUNCTION     0.08     0.11  1082.03     0  04:00        0.11
  H-76                 JUNCTION     0.06     0.10  1082.52     0  03:36        0.10
  H-77                 JUNCTION     0.06     0.09  1084.10     0  03:25        0.09
  H-78                 JUNCTION     0.06     0.09  1085.70     0  03:17        0.09
  H-79                 JUNCTION     0.08     0.12  1086.01     0  03:14        0.12
  H-8                  JUNCTION     0.07     0.16  1118.32     0  03:57        0.16
  H-80                 JUNCTION     0.04     0.06  1091.06     0  04:00        0.06
  H-81                 JUNCTION     0.03     0.04  1093.04     0  03:55        0.04
  H-82                 JUNCTION     0.02     0.03  1098.03     0  03:51        0.03
  H-83                 JUNCTION     0.12     0.21  1080.61     0  04:09        0.20
  H-86                 JUNCTION     0.01     0.02  1067.23     0  04:00        0.02
  H-87                 JUNCTION     0.00     0.02  1072.02     0  04:00        0.02
  H-88                 JUNCTION     0.05     0.09  1067.82     0  04:00        0.09
  H-89                 JUNCTION     0.02     0.04  1072.04     0  04:00        0.04
  H-9                  JUNCTION     0.07     0.15  1118.44     0  03:54        0.15
  H-90                 JUNCTION     0.02     0.05  1073.05     0  04:00        0.05
  H-91                 JUNCTION     0.00     0.01  1078.01     0  04:25        0.01
  H-92                 JUNCTION     0.01     0.02  1077.72     0  04:00        0.02
  H-93                 JUNCTION     0.18     0.30  1078.77     0  04:11        0.30
  H-94                 JUNCTION     0.14     0.24  1078.64     0  04:11        0.24
  H-96                 JUNCTION     0.07     0.12  1084.32     0  04:10        0.12
  H-97                 JUNCTION     0.10     0.18  1086.04     0  04:09        0.18
  H-98                 JUNCTION     0.09     0.17  1087.08     0  04:07        0.16
  H-99                 JUNCTION     0.09     0.16  1088.27     0  04:06        0.16
  H-WWPTP250           JUNCTION     0.26     0.42  1073.32     0  04:13        0.42
  HMR_HOUSING_H-84     JUNCTION     0.02     0.06  1078.77     0  04:10        0.06
  HMR_MOTORPOOL_H-11   JUNCTION     0.03     0.03  1119.14     0  04:25        0.03
  KAM_DOLE             JUNCTION     0.00     0.01   941.48     0  00:00        0.01
  KAM_DOLE_CHAM        JUNCTION     0.00     0.00   941.47     0  05:01        0.00
  S-4-81               JUNCTION     0.00     0.00     0.00     0  00:00        0.00
  KAM_DOLE_OUT         OUTFALL      0.00     0.01   931.48     0  00:39        0.00
  S-SPS217-H           STORAGE      3.16     3.86  1113.86     0  12:00        3.86
  S-SPS255-H           STORAGE      0.00     1.86  1106.76     0  00:00        0.00
  S-SPS265-H           STORAGE      3.62     5.17   860.17     0  12:00        5.17
  
  
  *******************
  Node Inflow Summary
  *******************
  
  -------------------------------------------------------------------------------------------------
                                  Maximum  Maximum                  Lateral       Total        Flow
                                  Lateral    Total  Time of Max      Inflow      Inflow     Balance
                                   Inflow   Inflow   Occurrence      Volume      Volume       Error
  Node                 Type           GPM      GPM  days hr:min    10^6 gal    10^6 gal     Percent
  -------------------------------------------------------------------------------------------------
  H-021                JUNCTION      2.80 32549.27     0  00:00     0.00124      0.0628      11.469
  H-022                JUNCTION      0.40   668.74     0  00:00     5.4e-05      0.0519       3.299
  H-023                JUNCTION      0.70   195.64     0  04:45    0.000294      0.0514       0.253
  H-024                JUNCTION      1.20   194.97     0  04:44    0.000576      0.0512       0.161
  H-025                JUNCTION      0.40   193.83     0  04:43     5.4e-05      0.0508       0.262
  H-026                JUNCTION      0.40   193.73     0  04:42     5.4e-05       0.051       0.430
  H-027                JUNCTION      0.40   193.68     0  04:40     5.4e-05      0.0512       0.516
  H-028                JUNCTION      0.80   193.66     0  04:38    0.000354      0.0513       0.430
  H-029                JUNCTION      1.30   192.96     0  04:37    0.000624      0.0511       0.239
  H-10                 JUNCTION      0.40    35.31     0  03:47     5.4e-05     0.00648       0.977
  H-100                JUNCTION      0.20     1.60     0  06:28     4.2e-05     0.00059       0.090
  H-101                JUNCTION      0.50     1.40     0  08:18    0.000192     0.00055       0.295
  H-102                JUNCTION      0.90     0.90     0  06:00     0.00036     0.00036       0.515
  H-103                JUNCTION      0.70    45.58     0  04:04    0.000276      0.0115       0.265
  H-104                JUNCTION      1.50    45.35     0  04:03    0.000606      0.0113       0.400
  H-105                JUNCTION      0.70     9.32     0  04:00     0.00021     0.00229       0.256
  H-106                JUNCTION      0.20     8.85     0  04:00     4.2e-05     0.00209       0.458
  H-107                JUNCTION      2.10     8.92     0  04:00    0.000354     0.00206       0.268
  H-108                JUNCTION      0.80     6.98     0  04:00    0.000108     0.00171       0.315
  H-109                JUNCTION      0.40     6.43     0  04:11     5.4e-05     0.00161       0.381
  H-110                JUNCTION      0.40     6.13     0  04:09     0.00018     0.00156       0.216
  H-111                JUNCTION      0.90     5.99     0  04:00    0.000342     0.00139       0.740
  H-112                JUNCTION      0.20     5.60     0  04:03     3.6e-05     0.00105       0.351
  H-113                JUNCTION      0.20     5.52     0  04:00     4.2e-05     0.00102       0.855
  H-114                JUNCTION      0.20     5.70     0  04:00     3.6e-05       0.001       2.272
  H-115                JUNCTION      0.20     1.32     0  03:03     4.2e-05    0.000186      -0.073
  H-116                JUNCTION      1.20     1.20     0  03:00    0.000144    0.000144      -0.147
  H-117                JUNCTION      1.20     4.20     0  04:00    0.000144    0.000781       0.221
  H-118                JUNCTION      1.20     3.00     0  04:00    0.000144    0.000638       0.196
  H-119                JUNCTION      0.80     0.80     0  03:00    0.000108    0.000108      -0.238
  H-12                 JUNCTION      0.80     9.66     0  04:01    0.000108     0.00151      64.003
  H-120                JUNCTION      0.30     1.00     0  04:00     4.2e-05    0.000387       0.362
  H-121                JUNCTION      0.20     0.80     0  08:11     3.6e-05    0.000347       0.552
  H-122                JUNCTION      0.80     0.80     0  08:00    0.000312    0.000312       0.240
  H-123                JUNCTION      0.20    35.75     0  04:02     3.6e-05     0.00838       0.324
  H-124                JUNCTION      2.70    35.74     0  04:01     0.00128     0.00837       0.278
  H-125                JUNCTION      0.70    33.00     0  04:00    0.000246     0.00712       0.416
  H-126                JUNCTION      0.30    32.30     0  04:00     7.2e-05      0.0069       0.358
  H-127                JUNCTION      1.50    32.20     0  04:00    0.000276     0.00684       0.261
  H-128                JUNCTION      1.70    30.70     0  04:00    0.000276     0.00658       0.280
  H-129                JUNCTION      0.80    29.00     0  04:00    0.000108     0.00633       0.312
  H-13                 JUNCTION      0.90     0.90     0  03:00    0.000114    0.000114      -0.664
  H-130                JUNCTION      0.50    28.20     0  04:00    0.000192     0.00624       0.368
  H-131                JUNCTION      0.50    27.90     0  04:00    0.000192     0.00607       0.250
  H-132                JUNCTION      1.50    27.60     0  04:00    0.000618     0.00589       0.254
  H-133                JUNCTION      0.20    26.60     0  04:00     4.2e-05     0.00529       0.362
  H-134                JUNCTION      1.20    26.50     0  04:00    0.000444     0.00526       0.292
  H-135                JUNCTION      5.00    25.40     0  04:00    0.000804     0.00483       0.170
  H-136                JUNCTION      9.00    20.40     0  04:00     0.00184     0.00403       0.224
  H-137                JUNCTION      1.40    11.40     0  04:00    0.000174      0.0022       0.287
  H-138                JUNCTION      9.20    10.00     0  04:00     0.00193     0.00204       0.510
  H-139                JUNCTION      0.80     0.80     0  03:00    0.000108    0.000108      -0.565
  H-14                 JUNCTION      0.80     7.20     0  04:00    0.000108     0.00127      -0.011
  H-140                JUNCTION      0.20     0.20     0  03:00     3.6e-05     3.6e-05      -0.152
  H-141                JUNCTION      0.80     1.00     0  04:00     0.00012    0.000156       0.071
  H-142                JUNCTION      1.60     2.60     0  04:00    0.000666    0.000822       0.174
  H-143                JUNCTION      0.30     2.78     0  04:03     6.6e-05    0.000886       0.192
  H-144                JUNCTION      1.90     6.00     0  04:00    0.000792      0.0024       0.330
  H-145                JUNCTION      1.40     2.10     0  03:23     0.00057    0.000726       0.299
  H-146                JUNCTION      0.20     1.21     0  03:08     3.6e-05    0.000156       0.186
  H-147                JUNCTION      1.00     1.00     0  03:00     0.00012     0.00012      -0.352
  H-148                JUNCTION      2.00     8.00     0  04:00    0.000258     0.00265       0.238
  H-149                JUNCTION      0.80     8.80     0  04:00    0.000108     0.00275       0.301
  H-15                 JUNCTION      0.80     6.40     0  03:33    0.000108     0.00118       1.133
  H-150                JUNCTION      0.20     8.90     0  04:00     4.2e-05     0.00279       0.223
  H-151                JUNCTION      1.60     9.90     0  04:00    0.000624      0.0034       0.423
  H-152                JUNCTION      0.50    10.20     0  04:00    0.000198     0.00359       0.609
  H-153                JUNCTION      1.80    29.80     0  04:00    0.000744     0.00926       0.087
  H-154                JUNCTION      1.70    18.40     0  04:00    0.000696     0.00499       0.692
  H-155                JUNCTION      0.20     3.00     0  03:24     4.2e-05    0.000513       0.468
  H-156                JUNCTION      0.20     2.91     0  03:17     4.2e-05    0.000473       0.241
  H-157                JUNCTION      1.70     2.80     0  03:37    0.000264    0.000432       0.286
  H-158                JUNCTION      1.10     1.10     0  03:00    0.000168    0.000168       0.084
  H-159                JUNCTION      0.80    14.30     0  04:00    0.000108     0.00379       0.384
  H-16                 JUNCTION      3.00     5.60     0  03:55    0.000624     0.00107       0.263
  H-160                JUNCTION      1.80    13.50     0  04:00    0.000744      0.0037       0.251
  H-161                JUNCTION      1.00    12.30     0  04:00    0.000396     0.00296       0.371
  H-162                JUNCTION      1.70    11.70     0  04:00     0.00069     0.00257       0.307
  H-163                JUNCTION      2.30    10.60     0  04:00    0.000504     0.00189       0.244
  H-164                JUNCTION      4.00     8.30     0  04:00    0.000528     0.00139       0.470
  H-165                JUNCTION      3.50     4.30     0  04:00    0.000762    0.000871       0.822
  H-166                JUNCTION      0.80     0.80     0  03:00    0.000108    0.000108      -0.723
  H-17                 JUNCTION      2.60     2.60     0  03:00     0.00045     0.00045       0.214
  H-18                 JUNCTION      1.20    35.05     0  03:38    0.000144     0.00624       1.107
  H-19                 JUNCTION      1.20    33.00     0  03:47    0.000144     0.00614       0.657
  H-20                 JUNCTION      0.80    31.80     0  03:46    0.000108     0.00601       0.244
  H-21                 JUNCTION      0.40     0.40     0  03:00     4.2e-05     4.2e-05       0.162
  H-210                JUNCTION      0.40   191.69     0  04:37     5.4e-05      0.0506       0.245
  H-211                JUNCTION      0.40   191.84     0  04:34     5.4e-05      0.0509       0.694
  H-212                JUNCTION      2.90   191.60     0  04:34     0.00136      0.0509       0.187
  H-213                JUNCTION      0.40   188.94     0  04:33     5.4e-05      0.0497       0.205
  H-214                JUNCTION      0.90   188.70     0  04:32    0.000348      0.0497       0.189
  H-215                JUNCTION      0.50   187.86     0  04:31    0.000156      0.0495       0.184
  H-216                JUNCTION      0.50   187.49     0  04:30     7.2e-05      0.0494       0.294
  H-217                JUNCTION      2.70   187.58     0  04:28     0.00127      0.0497       0.688
  H-218                JUNCTION      0.40   185.22     0  04:27     5.4e-05      0.0486       0.258
  H-219                JUNCTION      0.40   184.97     0  04:26     5.4e-05      0.0486       0.169
  H-22                 JUNCTION      0.40    30.60     0  03:45     4.2e-05     0.00587       0.243
  H-220                JUNCTION      0.40   184.92     0  04:24     5.4e-05      0.0487       0.329
  H-221                JUNCTION      0.40   184.75     0  04:23     5.4e-05      0.0488       0.234
  H-222                JUNCTION      0.40   184.54     0  04:23     5.4e-05      0.0488       0.186
  H-223                JUNCTION      0.40   184.40     0  04:21     5.4e-05      0.0489       0.262
  H-224                JUNCTION      0.40   184.28     0  04:20     5.4e-05      0.0489       0.252
  H-225                JUNCTION      0.50   184.10     0  04:19     4.8e-05       0.049       0.244
  H-226                JUNCTION      0.40   184.03     0  04:18     5.4e-05      0.0491       0.242
  H-227                JUNCTION      0.70   183.85     0  04:17    0.000258      0.0491       0.240
  H-228                JUNCTION      0.40   183.32     0  04:16     5.4e-05       0.049       0.231
  H-229                JUNCTION      0.40   183.11     0  04:15     5.4e-05       0.049       0.179
  H-23                 JUNCTION      1.40     1.40     0  03:00     0.00024     0.00024       0.101
  H-230                JUNCTION      0.40   182.87     0  04:14     5.4e-05      0.0491       0.161
  H-231                JUNCTION      0.20   182.60     0  04:14     4.2e-05      0.0491       0.112
  H-232                JUNCTION      0.00   182.61     0  04:13           0      0.0491       0.081
  H-24                 JUNCTION      1.20    28.80     0  03:44    0.000222     0.00559       0.094
  H-25                 JUNCTION      3.00     3.00     0  03:00     0.00066     0.00066       0.175
  H-26                 JUNCTION      1.10    24.88     0  03:24    0.000204     0.00476       1.100
  H-27                 JUNCTION      1.10    23.59     0  03:17     0.00021     0.00459       0.671
  H-28                 JUNCTION      1.20    22.40     0  03:59    0.000144      0.0044       0.377
  H-29                 JUNCTION      1.20    21.20     0  03:59    0.000144     0.00427       0.282
  H-30                 JUNCTION      0.80    20.00     0  03:21    0.000354     0.00416       1.000
  H-31                 JUNCTION     19.30    19.30     0  03:00     0.00382     0.00382       0.159
  H-32                 JUNCTION     11.80    11.80     0  03:00     0.00219     0.00219       0.127
  H-33                 JUNCTION     15.50    67.67     0  04:00     0.00291      0.0124       0.320
  H-34                 JUNCTION      0.50    40.58     0  04:00    0.000186     0.00736       0.404
  H-35                 JUNCTION      0.80    68.75     0  04:00    0.000108      0.0128       0.442
  H-36                 JUNCTION      0.70     0.70     0  08:00    0.000276    0.000276       0.372
  H-37                 JUNCTION      0.40    70.53     0  04:00       9e-05      0.0131       0.385
  H-38                 JUNCTION      1.00     2.30     0  04:00    0.000126    0.000283      -0.175
  H-39                 JUNCTION      1.30     1.30     0  03:00    0.000156    0.000156      -0.492
  H-40                 JUNCTION      0.70    73.32     0  04:00     0.00027      0.0138       0.526
  H-41                 JUNCTION      2.70     2.70     0  03:00    0.000492    0.000492       0.159
  H-42                 JUNCTION      1.70     1.70     0  03:00    0.000282    0.000282       0.258
  H-43                 JUNCTION      2.30     4.00     0  03:35    0.000414    0.000695       0.831
  H-44                 JUNCTION      1.80    35.60     0  04:00    0.000294      0.0102       0.220
  H-45                 JUNCTION      0.70    44.30     0  04:00     8.4e-05      0.0116       0.177
  H-46                 JUNCTION      0.70     8.00     0  04:00     8.4e-05     0.00134       0.302
  H-47                 JUNCTION      0.70     7.30     0  04:00     8.4e-05     0.00126       0.277
  H-48                 JUNCTION      3.20     5.90     0  03:22    0.000612     0.00111       0.236
  H-48A                JUNCTION      0.70     6.60     0  03:27     8.4e-05     0.00119       1.086
  H-49                 JUNCTION      2.70     2.70     0  03:00    0.000498    0.000498       0.174
  H-5                  JUNCTION      0.30    39.49     0  04:00     7.8e-05      0.0067       1.274
  H-50                 JUNCTION      0.20    45.20     0  04:00     4.2e-05      0.0121       0.163
  H-51                 JUNCTION      0.40     1.31     0  06:07     0.00012    0.000485       0.288
  H-52                 JUNCTION      0.80     0.80     0  08:00    0.000324    0.000324       0.199
  H-53                 JUNCTION      0.20     0.20     0  06:00     4.2e-05     4.2e-05      -0.087
  H-54                 JUNCTION      5.30   116.17     0  04:02     0.00227      0.0281       0.184
  H-55                 JUNCTION      0.20    71.51     0  04:04     4.2e-05      0.0138       0.280
  H-56                 JUNCTION      0.30    71.98     0  04:03     7.2e-05      0.0138       0.380
  H-57                 JUNCTION      0.20    72.56     0  04:01     4.2e-05      0.0138       0.473
  H-58                 JUNCTION      1.10   116.66     0  04:03    0.000126      0.0282       0.157
  H-59                 JUNCTION      0.20   116.67     0  04:04     4.2e-05      0.0282       0.103
  H-6                  JUNCTION      1.40    40.38     0  04:00    0.000576     0.00719       0.346
  H-60                 JUNCTION      0.20     0.20     0  06:00     4.2e-05     4.2e-05       0.668
  H-61                 JUNCTION      0.20   116.82     0  04:04     4.2e-05      0.0284       0.122
  H-62                 JUNCTION      0.50     0.50     0  08:00    0.000186    0.000186       0.496
  H-64                 JUNCTION      0.60   122.20     0  04:05    0.000258      0.0316       0.203
  H-65                 JUNCTION      2.10     7.10     0  09:00    0.000834     0.00294       0.367
  H-66                 JUNCTION      2.20     5.00     0  09:00    0.000912     0.00211       0.448
  H-67                 JUNCTION      0.20     2.90     0  03:57     4.2e-05     0.00121       0.588
  H-68                 JUNCTION      1.10     1.10     0  03:00    0.000126    0.000126       0.140
  H-69                 JUNCTION      0.20     2.60     0  08:22     4.2e-05     0.00104       0.295
  H-7                  JUNCTION      1.20    39.45     0  03:57    0.000144     0.00684       3.271
  H-70                 JUNCTION      2.40     2.50     0  08:00     0.00096       0.001       0.143
  H-71                 JUNCTION      0.20     0.20     0  06:00     4.2e-05     4.2e-05       0.018
  H-73                 JUNCTION      0.20   122.06     0  04:06     4.2e-05      0.0316       0.657
  H-74                 JUNCTION      0.20   134.42     0  04:08     4.2e-05      0.0365       0.076
  H-75                 JUNCTION      1.40    14.31     0  03:36    0.000552     0.00513       0.752
  H-76                 JUNCTION      1.20    13.52     0  03:27    0.000498      0.0046       0.492
  H-77                 JUNCTION      0.20    12.82     0  03:18     4.2e-05     0.00413       0.729
  H-78                 JUNCTION      1.10    12.59     0  03:16    0.000126     0.00411       0.375
  H-79                 JUNCTION      0.20    11.40     0  03:56     4.2e-05       0.004       0.476
  H-8                  JUNCTION      2.70    38.32     0  03:54    0.000318     0.00674       0.582
  H-80                 JUNCTION      3.40    11.30     0  03:49     0.00113     0.00397       0.351
  H-81                 JUNCTION      4.20     4.20     0  03:00      0.0015      0.0015       0.142
  H-82                 JUNCTION      3.70     3.70     0  03:00     0.00134     0.00134       0.209
  H-83                 JUNCTION      2.10   135.72     0  04:08    0.000534       0.037       0.172
  H-86                 JUNCTION      3.20    11.90     0  04:00     0.00101     0.00281       0.216
  H-87                 JUNCTION      1.20     1.20     0  03:00    0.000144    0.000144      -0.199
  H-88                 JUNCTION      1.20     7.50     0  04:00    0.000144     0.00167       0.422
  H-89                 JUNCTION      2.80     6.30     0  04:00    0.000852     0.00152       0.087
  H-9                  JUNCTION      0.20    35.67     0  03:51     3.6e-05     0.00645       0.539
  H-90                 JUNCTION      1.90     3.50     0  04:00    0.000462    0.000677       0.673
  H-91                 JUNCTION      0.20     0.20     0  03:00     3.6e-05     3.6e-05      -0.090
  H-92                 JUNCTION      1.40     1.40     0  03:00     0.00018     0.00018       0.452
  H-93                 JUNCTION      0.20   136.17     0  04:10     3.6e-05      0.0372       0.145
  H-94                 JUNCTION      1.30   183.46     0  04:11    0.000192      0.0494       0.261
  H-96                 JUNCTION      0.60    46.74     0  04:09    0.000186      0.0122       0.497
  H-97                 JUNCTION      0.20    46.19     0  04:07     4.2e-05      0.0121       0.477
  H-98                 JUNCTION      0.20    46.22     0  04:06     4.2e-05      0.0121       0.321
  H-99                 JUNCTION      0.20    46.27     0  04:05     4.2e-05      0.0121       0.367
  H-WWPTP250           JUNCTION      0.20   183.20     0  04:12     4.2e-05      0.0494       0.612
  HMR_HOUSING_H-84     JUNCTION      0.00     1.23     0  03:33           0    0.000196       0.337
  HMR_MOTORPOOL_H-11   JUNCTION      0.00     0.36     0  00:00           0    0.000257       0.458
  KAM_DOLE             JUNCTION      0.00     1.65     0  00:00           0     1.1e-06       0.218 gal
  KAM_DOLE_CHAM        JUNCTION      0.00     0.01     0  00:05           0    8.81e-07      -0.161 gal
  S-4-81               JUNCTION      0.00     0.00     0  00:00           0           0       0.000 gal
  KAM_DOLE_OUT         OUTFALL       0.00     0.36     0  00:39           0    1.04e-06       0.000 gal
  S-SPS217-H           STORAGE       0.00     8.90     0  03:59           0     0.00116      58.908
  S-SPS255-H           STORAGE       0.00     0.00     0  00:00           0     0.00269     -76.347
  S-SPS265-H           STORAGE       0.00    11.90     0  04:00           0      0.0031     225.538
  
  
  **********************
  Node Surcharge Summary
  **********************
  
  Surcharging occurs when water rises above the top of the highest conduit.
  ---------------------------------------------------------------------
                                               Max. Height   Min. Depth
                                   Hours       Above Crown    Below Rim
  Node                 Type      Surcharged           Feet         Feet
  ---------------------------------------------------------------------
  H-021                JUNCTION       11.95          3.000        0.000
  H-022                JUNCTION        8.31          1.962        1.948
  S-4-81               JUNCTION       12.00          0.000        0.000
  
  
  *********************
  Node Flooding Summary
  *********************
  
  Flooding refers to all water that overflows a node, whether it ponds or not.
  --------------------------------------------------------------------------
                                                             Total   Maximum
                                 Maximum   Time of Max       Flood    Ponded
                        Hours       Rate    Occurrence      Volume     Depth
  Node                 Flooded       GPM   days hr:min    10^6 gal      Feet
  --------------------------------------------------------------------------
  H-021                   8.28  29040.28      0  00:00       0.056     0.000
  
  
  **********************
  Storage Volume Summary
  **********************
  
  ------------------------------------------------------------------------------------------------
                         Average    Avg   Evap  Exfil     Maximum    Max    Time of Max    Maximum
                          Volume   Pcnt   Pcnt   Pcnt      Volume   Pcnt     Occurrence    Outflow
  Storage Unit          1000 ftł   Full   Loss   Loss    1000 ftł   Full    days hr:min        GPM
  ------------------------------------------------------------------------------------------------
  S-SPS217-H               0.051   45.2    0.0    0.0       0.062   55.2       0  12:00       2.17
  S-SPS255-H               0.000    0.0    0.0    0.0       0.335   14.3       0  00:00   32550.62
  S-SPS265-H               0.071   63.8    0.0    0.0       0.102   91.2       0  12:00       0.27
  
  
  ***********************
  Outfall Loading Summary
  ***********************
  
  -----------------------------------------------------------
                         Flow       Avg       Max       Total
                         Freq      Flow      Flow      Volume
  Outfall Node           Pcnt       GPM       GPM    10^6 gal
  -----------------------------------------------------------
  KAM_DOLE_OUT           0.00      0.00      0.00       0.000
  -----------------------------------------------------------
  System                 0.00      0.00      0.36       0.000
  
  
  ********************
  Link Flow Summary
  ********************
  
  -----------------------------------------------------------------------------
                                 Maximum  Time of Max   Maximum    Max/    Max/
                                  |Flow|   Occurrence   |Veloc|    Full    Full
  Link                 Type          GPM  days hr:min    ft/sec    Flow   Depth
  -----------------------------------------------------------------------------
  50                   CONDUIT      0.36     0  00:39      0.00    0.00    0.00
  H-022_H-021          CONDUIT    668.74     0  00:00      3.56    0.68    1.00
  H-023_H-022          CONDUIT    195.59     0  04:46      0.90    0.07    0.59
  H-024_H-023          CONDUIT    194.94     0  04:45      4.53    0.07    0.18
  H-025_H-024          CONDUIT    193.77     0  04:44      3.94    0.09    0.20
  H-026_H-025          CONDUIT    193.53     0  04:43      2.94    0.15    0.24
  H-027_H-026          CONDUIT    193.43     0  04:42      2.27    0.20    0.29
  H-028_H-027          CONDUIT    193.38     0  04:40      2.11    0.20    0.31
  H-029_H-028          CONDUIT    192.86     0  04:38      2.16    0.20    0.30
  H-100_H-99           CONDUIT      1.60     0  06:30      0.36    0.00    0.13
  H-101_H-100          CONDUIT      1.40     0  08:23      1.16    0.00    0.03
  H-102_H-101          CONDUIT      0.90     0  08:18      0.53    0.00    0.03
  H-103_H-99           CONDUIT     45.50     0  04:05      1.40    0.15    0.26
  H-104_H-103          CONDUIT     45.18     0  04:04      1.38    0.14    0.26
  H-105_H-104          CONDUIT      9.20     0  04:01      0.62    0.01    0.17
  H-106_H-105          CONDUIT      8.62     0  04:00      1.07    0.02    0.10
  H-107_H-106          CONDUIT      8.75     0  04:00      0.96    0.02    0.11
  H-108_H-107          CONDUIT      6.82     0  04:00      0.84    0.02    0.10
  H-109_H-108          CONDUIT      6.41     0  04:13      0.80    0.02    0.10
  H-110_H-109          CONDUIT      6.13     0  04:11      0.99    0.01    0.08
  H-111_H-110          CONDUIT      5.93     0  04:09      0.89    0.02    0.09
  H-112_H-111          CONDUIT      5.58     0  04:05      0.87    0.01    0.08
  H-113_H-112          CONDUIT      5.40     0  04:03      1.28    0.01    0.06
  H-114_H-113          CONDUIT      5.43     0  04:01      0.56    0.03    0.11
  H-115_H-114          CONDUIT      1.30     0  03:41      0.37    0.00    0.10
  H-116_H-115          CONDUIT      1.22     0  03:03      1.22    0.00    0.03
  H-117_H-114          CONDUIT      4.20     0  04:00      0.60    0.01    0.12
  H-118_H-117          CONDUIT      3.00     0  04:00      0.83    0.00    0.06
  H-119_H-118          CONDUIT      0.80     0  03:27      0.63    0.00    0.03
  H-120_H-118          CONDUIT      1.00     0  04:00      0.53    0.00    0.04
  H-121_H-120          CONDUIT      0.80     0  08:29      0.84    0.00    0.03
  H-122_H-121          CONDUIT      0.80     0  08:11      0.77    0.00    0.04
  H-123_H-104          CONDUIT     35.61     0  04:04      1.33    0.11    0.23
  H-124_H-123          CONDUIT     35.55     0  04:02      1.41    0.10    0.22
  H-125_H-124          CONDUIT     33.04     0  04:01      1.32    0.10    0.22
  H-126_H-125          CONDUIT     32.30     0  04:00      1.33    0.10    0.21
  H-127_H-126          CONDUIT     32.20     0  04:00      1.66    0.05    0.18
  H-128_H-127          CONDUIT     30.70     0  04:00      2.05    0.05    0.15
  H-129_H-128          CONDUIT     29.00     0  04:00      2.08    0.04    0.14
  H-130_H-129          CONDUIT     28.20     0  04:00      1.97    0.05    0.15
  H-131_H-130          CONDUIT     27.90     0  04:00      1.84    0.05    0.15
  H-132_H-131          CONDUIT     27.60     0  04:00      1.70    0.06    0.16
  H-133_H-132          CONDUIT     26.60     0  04:00      1.58    0.06    0.16
  H-134_H-133          CONDUIT     26.50     0  04:00      1.56    0.06    0.17
  H-135_H-134          CONDUIT     25.40     0  04:00      1.61    0.05    0.16
  H-136_H-135          CONDUIT     20.40     0  04:00      1.48    0.04    0.14
  H-137_H-136          CONDUIT     11.40     0  04:00      1.17    0.02    0.11
  H-138_H-137          CONDUIT     10.00     0  04:00      1.43    0.02    0.09
  H-139_H-138          CONDUIT      0.80     0  04:00      0.28    0.00    0.06
  H-210_H-29           CONDUIT    191.66     0  04:37      2.15    0.20    0.30
  H-211_H-210          CONDUIT    191.39     0  04:37      1.44    0.44    0.40
  H-212_H-211          CONDUIT    191.54     0  04:34      1.76    0.08    0.35
  H-213_H-212          CONDUIT    188.90     0  04:34      3.68    0.10    0.20
  H-214_H-213          CONDUIT    188.64     0  04:33      3.60    0.09    0.21
  H-215_H-214          CONDUIT    187.80     0  04:32      3.79    0.09    0.20
  H-216_H-215          CONDUIT    187.36     0  04:31      2.99    0.14    0.23
  H-217_H-216          CONDUIT    187.09     0  04:30      1.47    0.43    0.39
  H-218_H-217          CONDUIT    185.08     0  04:28      1.49    0.14    0.38
  H-219_H-218          CONDUIT    184.92     0  04:27      3.22    0.08    0.22
  H-21_H-SPS25         CONDUIT  32548.97     0  00:00    >50.00    0.58    0.80
  H-220_H-219          CONDUIT    184.67     0  04:26      2.64    0.19    0.25
  H-221_H-220          CONDUIT    184.62     0  04:24      2.26    0.13    0.28
  H-222_H-221          CONDUIT    184.45     0  04:23      3.07    0.09    0.23
  H-223_H-222          CONDUIT    184.24     0  04:23      2.83    0.15    0.24
  H-224_H-223          CONDUIT    184.10     0  04:21      2.44    0.15    0.27
  H-225_H-224          CONDUIT    183.98     0  04:20      2.52    0.15    0.26
  H-226_H-225          CONDUIT    183.90     0  04:19      2.52    0.15    0.26
  H-227_H-226          CONDUIT    183.73     0  04:18      2.52    0.15    0.26
  H-228_H-227          CONDUIT    183.15     0  04:17      2.52    0.15    0.26
  H-229_H-228          CONDUIT    183.02     0  04:16      2.93    0.09    0.23
  H-230_H-229          CONDUIT    182.81     0  04:15      3.48    0.09    0.21
  H-231_H-230          CONDUIT    182.57     0  04:14      4.20    0.05    0.18
  H-232_H-231          CONDUIT    182.60     0  04:14      4.85    0.06    0.16
  H-98_H-97            CONDUIT     46.19     0  04:07      1.41    0.14    0.26
  H-99_H-98            CONDUIT     46.22     0  04:06      1.53    0.13    0.25
  KAM_DOLE_FM          CONDUIT      0.01     0  00:05      0.00    0.00    0.01
  S-10/9-H             CONDUIT     35.47     0  03:51      0.91    0.03    0.12
  S-11/10-H            CONDUIT      0.36     0  03:51      0.33    0.01    0.06
  S-12/SPS21           CONDUIT      8.90     0  03:59      0.10    0.01    0.94
  S-13/12-H            CONDUIT      0.90     0  03:58      0.90    0.00    0.42
  S-14/12-H            CONDUIT      7.25     0  04:00      1.19    0.01    0.46
  S-140/141-           CONDUIT      0.20     0  05:00      0.28    0.00    0.02
  S-141/142-           CONDUIT      1.00     0  04:00      0.61    0.00    0.03
  S-142/143-           CONDUIT      2.48     0  04:03      0.89    0.00    0.05
  S-143/144-           CONDUIT      2.77     0  04:04      0.61    0.01    0.07
  S-144/148-           CONDUIT      6.00     0  04:00      0.94    0.02    0.09
  S-145/144-           CONDUIT      2.10     0  03:34      0.52    0.00    0.06
  S-146/145-           CONDUIT      1.20     0  03:23      0.69    0.00    0.04
  S-147/146-           CONDUIT      1.01     0  03:08      0.70    0.00    0.03
  S-148/149-           CONDUIT      8.00     0  04:00      1.17    0.02    0.09
  S-149/150-           CONDUIT      8.80     0  04:00      1.43    0.02    0.08
  S-15/14-H            CONDUIT      6.40     0  04:00      0.74    0.06    0.15
  S-150/151-           CONDUIT      8.90     0  04:00      1.19    0.01    0.09
  S-151/152-           CONDUIT      9.90     0  04:00      1.15    0.03    0.10
  S-152/153-           CONDUIT     10.20     0  04:00      1.36    0.02    0.09
  S-153/44-H           CONDUIT     29.80     0  04:00      1.61    0.03    0.13
  S-154/153-           CONDUIT     18.40     0  04:00      1.76    0.03    0.12
  S-155/154-           CONDUIT      3.00     0  04:00      0.48    0.01    0.09
  S-156/155-           CONDUIT      2.90     0  03:24      1.16    0.00    0.05
  S-157/156-           CONDUIT      2.81     0  03:17      1.06    0.01    0.05
  S-158/157-           CONDUIT      1.10     0  03:37      0.51    0.00    0.04
  S-159/154-           CONDUIT     14.30     0  04:00      1.21    0.04    0.13
  S-16/15-H            CONDUIT      5.60     0  03:33      0.98    0.02    0.15
  S-160/159-           CONDUIT     13.50     0  04:00      1.13    0.03    0.13
  S-161/160-           CONDUIT     12.30     0  04:00      1.35    0.02    0.11
  S-162/161-           CONDUIT     11.70     0  04:00      1.51    0.02    0.10
  S-163/162-           CONDUIT     10.60     0  04:00      1.61    0.01    0.09
  S-164/163-           CONDUIT      8.30     0  04:00      1.48    0.01    0.08
  S-165/164-           CONDUIT      4.30     0  04:00      0.83    0.01    0.07
  S-166/165-           CONDUIT      0.80     0  04:00      0.28    0.00    0.05
  S-17/16-H            CONDUIT      2.60     0  03:55      0.78    0.01    0.08
  S-18/10-H            CONDUIT     34.56     0  03:47      0.96    0.03    0.12
  S-19/18-H            CONDUIT     33.85     0  03:38      1.01    0.03    0.11
  S-20/19-H            CONDUIT     31.80     0  03:47      1.35    0.01    0.09
  S-21/20-H            CONDUIT      0.40     0  04:00      0.56    0.00    0.02
  S-22/20-H            CONDUIT     30.60     0  03:46      1.92    0.01    0.07
  S-23/22-H            CONDUIT      1.40     0  03:49      0.89    0.00    0.03
  S-24/22-H            CONDUIT     28.80     0  03:45      1.64    0.01    0.07
  S-25/24-H            CONDUIT      3.00     0  03:28      1.23    0.00    0.04
  S-26/24-H            CONDUIT     24.60     0  03:44      1.84    0.04    0.14
  S-27/26-H            CONDUIT     23.78     0  03:24      1.77    0.05    0.15
  S-28/27-H            CONDUIT     22.49     0  03:17      1.34    0.07    0.17
  S-29/28-H            CONDUIT     21.20     0  03:59      1.13    0.06    0.18
  S-30/29-H            CONDUIT     20.00     0  03:59      0.68    1.19    0.24
  S-31/30-H            CONDUIT     19.30     0  03:21      1.07    0.05    0.23
  S-32/33-H            CONDUIT     11.80     0  03:17      0.84    0.03    0.21
  S-33/35-H            CONDUIT     67.45     0  04:00      1.80    0.19    0.29
  S-34/33-H            CONDUIT     40.42     0  04:01      1.41    0.11    0.26
  S-35/37-H            CONDUIT     68.17     0  04:00      1.82    0.17    0.29
  S-36/35-H            CONDUIT      0.70     0  09:00      0.17    0.00    0.15
  S-37/40-H            CONDUIT     70.11     0  04:00      1.83    0.19    0.29
  S-38/37-H            CONDUIT      2.30     0  04:00      0.18    0.01    0.18
  S-39/38-H            CONDUIT      1.30     0  04:00      0.43    0.00    0.05
  S-40/57-H            CONDUIT     72.56     0  04:01      1.96    0.18    0.29
  S-41/40-H            CONDUIT      2.70     0  04:00      0.43    0.01    0.17
  S-42/43-H            CONDUIT      1.70     0  03:35      0.59    0.00    0.06
  S-43/44-H            CONDUIT      4.00     0  04:00      0.91    0.01    0.07
  S-44/45-H            CONDUIT     35.60     0  04:00      1.68    0.05    0.14
  S-45/50-H            CONDUIT     44.30     0  04:00      2.18    0.04    0.14
  S-46/45-H            CONDUIT      8.00     0  04:00      1.37    0.01    0.08
  S-47/46-H            CONDUIT      7.30     0  04:00      1.36    0.01    0.08
  S-48/48A-H           CONDUIT      5.90     0  03:27      0.78    0.01    0.13
  S-48A/47-H           CONDUIT      6.60     0  04:00      0.53    0.05    0.13
  S-49/48-H            CONDUIT      2.70     0  03:22      0.91    0.00    0.05
  S-5/6-H              CONDUIT     39.48     0  04:00      2.54    0.03    0.16
  S-50/54-H            CONDUIT     45.19     0  04:00      1.34    0.04    0.21
  S-51/50-H            CONDUIT      1.30     0  06:18      1.02    0.00    0.03
  S-52/51-H            CONDUIT      0.80     0  08:08      0.59    0.00    0.03
  S-53/51-H            CONDUIT      0.20     0  06:33      0.29    0.00    0.02
  S-54/58-H            CONDUIT    116.06     0  04:03      2.46    0.16    0.25
  S-55/54-H            CONDUIT     71.26     0  04:05      1.84    0.21    0.30
  S-56/55-H            CONDUIT     71.51     0  04:04      1.82    0.17    0.30
  S-57/56-H            CONDUIT     71.98     0  04:03      1.97    0.18    0.28
  S-58/59-H            CONDUIT    116.61     0  04:04      3.01    0.10    0.22
  S-59/61-H            CONDUIT    116.61     0  04:04      3.00    0.10    0.22
  S-6/34-H             CONDUIT     40.28     0  04:00      1.68    0.09    0.21
  S-60/59-H            CONDUIT      0.20     0  07:00      0.23    0.00    0.02
  S-61/64-H            CONDUIT    116.77     0  04:05      2.96    0.10    0.22
  S-62/61-H            CONDUIT      0.50     0  09:00      0.53    0.00    0.03
  S-64/73-H            CONDUIT    122.06     0  04:06      2.26    0.11    0.27
  S-65/64-H            CONDUIT      7.10     0  09:00      1.44    0.01    0.07
  S-66/65-H            CONDUIT      5.00     0  09:00      0.96    0.01    0.07
  S-67/66-H            CONDUIT      2.90     0  04:00      0.68    0.01    0.07
  S-68/67-H            CONDUIT      1.10     0  03:57      0.85    0.00    0.04
  S-69/67-H            CONDUIT      2.62     0  08:11      0.77    0.01    0.06
  S-7/5-H              CONDUIT     39.39     0  04:00      0.51    0.04    0.27
  S-70/69-H            CONDUIT      2.50     0  08:22      0.97    0.00    0.05
  S-71/70-H            CONDUIT      0.20     0  06:30      0.21    0.00    0.02
  S-73/74-H            CONDUIT    120.77     0  04:09      1.97    0.21    0.30
  S-74/83-H            CONDUIT    134.42     0  04:08      1.50    2.36    0.30
  S-75/74-H            CONDUIT     14.30     0  04:00      1.05    0.05    0.14
  S-76/75-H            CONDUIT     13.41     0  03:36      0.91    0.04    0.15
  S-77/76-H            CONDUIT     12.72     0  03:27      0.95    0.04    0.14
  S-78/77-H            CONDUIT     12.72     0  03:18      1.01    0.04    0.14
  S-79/78-H            CONDUIT     11.49     0  03:16      0.74    0.05    0.16
  S-8/7-H              CONDUIT     38.25     0  03:57      0.43    0.03    0.22
  S-80/79-H            CONDUIT     11.30     0  03:56      0.99    0.01    0.13
  S-81/80-H            CONDUIT      4.20     0  03:43      0.86    0.01    0.07
  S-82/80-H            CONDUIT      3.70     0  03:48      0.84    0.01    0.07
  S-83/84-H            CONDUIT    135.62     0  04:09      2.55    0.09    0.21
  S-84/93-H            CONDUIT      1.04     0  04:20      0.28    0.00    0.18
  S-86/SPS26           CONDUIT     11.90     0  04:00      0.15    0.00    0.52
  S-87/86-H            CONDUIT      1.20     0  03:30      0.86    0.00    0.03
  S-88/86-H            CONDUIT      7.50     0  04:00      1.21    0.03    0.08
  S-89/88-H            CONDUIT      6.30     0  04:00      0.93    0.01    0.09
  S-9/8-H              CONDUIT     35.62     0  03:54      0.90    0.03    0.12
  S-90/89-H            CONDUIT      3.50     0  04:00      0.86    0.01    0.06
  S-91/90-H            CONDUIT      0.20     0  04:25      0.16    0.00    0.04
  S-92/90-H            CONDUIT      1.40     0  04:00      0.51    0.00    0.05
  S-93/94-H            CONDUIT    136.08     0  04:11      1.76    0.21    0.27
  S-94/WWPTP           CONDUIT    183.20     0  04:12      1.82    0.13    0.33
  S-96/94-H            CONDUIT     46.68     0  04:10      2.33    0.08    0.19
  S-97/96-H            CONDUIT     46.14     0  04:09      1.68    0.14    0.23
  S-WWPTP/32           CONDUIT    182.61     0  04:13      2.11    0.51    0.29
  PS217-P1             PUMP         0.36     0  00:00              1.00
  PS217-P2             PUMP         0.00     0  00:00              0.00
  PS255-P1             PUMP         0.00     0  00:00              0.00
  PS255-P2             PUMP         1.65     0  00:00              1.00
  PS255-P3             PUMP         0.00     0  00:00              0.00
  PS265-P1             PUMP         0.27     0  00:00              1.00
  PS265-P2             PUMP         0.00     0  00:00              0.00
  
  
  ***************************
  Flow Classification Summary
  ***************************
  
  -------------------------------------------------------------------------------------
                      Adjusted    ---------- Fraction of Time in Flow Class ---------- 
                       /Actual         Up    Down  Sub   Sup   Up    Down  Norm  Inlet 
  Conduit               Length    Dry  Dry   Dry   Crit  Crit  Crit  Crit  Ltd   Ctrl  
  -------------------------------------------------------------------------------------
  50                      1.00   0.00  0.00  0.00  1.00  0.00  0.00  0.00  0.00  0.00
  H-022_H-021             1.00   0.00  0.00  0.00  1.00  0.00  0.00  0.00  0.00  0.00
  H-023_H-022             1.00   0.00  0.00  0.00  1.00  0.00  0.00  0.00  1.00  0.00
  H-024_H-023             1.00   0.00  0.00  0.00  0.05  0.95  0.00  0.00  0.79  0.00
  H-025_H-024             1.00   0.00  0.01  0.00  0.11  0.88  0.00  0.00  0.11  0.00
  H-026_H-025             1.00   0.01  0.00  0.00  0.19  0.80  0.00  0.00  0.00  0.00
  H-027_H-026             1.00   0.00  0.00  0.00  1.00  0.00  0.00  0.00  0.00  0.00
  H-028_H-027             1.00   0.00  0.00  0.00  1.00  0.00  0.00  0.00  0.82  0.00
  H-029_H-028             1.00   0.00  0.00  0.00  1.00  0.00  0.00  0.00  0.85  0.00
  H-100_H-99              1.82   0.00  0.04  0.00  0.94  0.01  0.00  0.00  1.00  0.00
  H-101_H-100             1.56   0.00  0.00  0.00  0.07  0.93  0.00  0.00  0.07  0.00
  H-102_H-101             1.00   0.00  0.00  0.00  1.00  0.00  0.00  0.00  0.08  0.00
  H-103_H-99              1.00   0.00  0.00  0.00  1.00  0.00  0.00  0.00  0.02  0.00
  H-104_H-103             1.00   0.00  0.00  0.00  1.00  0.00  0.00  0.00  0.99  0.00
  H-105_H-104             1.00   0.00  0.01  0.00  0.99  0.00  0.00  0.00  0.99  0.00
  H-106_H-105             1.00   0.00  0.00  0.00  1.00  0.00  0.00  0.00  0.00  0.00
  H-107_H-106             1.00   0.00  0.00  0.00  1.00  0.00  0.00  0.00  0.93  0.00
  H-108_H-107             1.00   0.00  0.00  0.00  1.00  0.00  0.00  0.00  0.40  0.00
  H-109_H-108             1.00   0.00  0.00  0.00  1.00  0.00  0.00  0.00  0.93  0.00
  H-110_H-109             1.00   0.00  0.00  0.00  0.98  0.02  0.00  0.00  0.97  0.00
  H-111_H-110             1.00   0.00  0.00  0.00  1.00  0.00  0.00  0.00  0.08  0.00
  H-112_H-111             1.00   0.00  0.08  0.00  0.92  0.00  0.00  0.00  0.92  0.00
  H-113_H-112             1.00   0.03  0.00  0.00  0.17  0.80  0.00  0.00  0.79  0.00
  H-114_H-113             1.00   0.02  0.00  0.00  0.98  0.00  0.00  0.00  0.00  0.00
  H-115_H-114             1.00   0.02  0.20  0.00  0.78  0.00  0.00  0.00  0.83  0.00
  H-116_H-115             1.00   0.22  0.44  0.00  0.01  0.33  0.00  0.00  0.82  0.00
  H-117_H-114             1.00   0.02  0.00  0.00  0.98  0.00  0.00  0.00  0.89  0.00
  H-118_H-117             1.00   0.01  0.04  0.00  0.85  0.11  0.00  0.00  0.98  0.00
  H-119_H-118             1.00   0.04  0.33  0.00  0.62  0.01  0.00  0.00  0.83  0.00
  H-120_H-118             1.00   0.01  0.00  0.00  0.99  0.00  0.00  0.00  0.06  0.00
  H-121_H-120             1.00   0.00  0.00  0.00  0.00  0.00  0.00  1.00  0.00  0.00
  H-122_H-121             1.00   0.00  0.00  0.00  0.32  0.68  0.00  0.00  0.36  0.00
  H-123_H-104             1.00   0.00  0.00  0.00  1.00  0.00  0.00  0.00  0.98  0.00
  H-124_H-123             1.00   0.00  0.00  0.00  1.00  0.00  0.00  0.00  0.82  0.00
  H-125_H-124             1.00   0.00  0.00  0.00  1.00  0.00  0.00  0.00  0.87  0.00
  H-126_H-125             1.00   0.00  0.00  0.00  1.00  0.00  0.00  0.00  0.89  0.00
  H-127_H-126             1.00   0.00  0.00  0.00  0.92  0.08  0.00  0.00  0.99  0.00
  H-128_H-127             1.00   0.00  0.00  0.00  0.04  0.96  0.00  0.00  0.51  0.00
  H-129_H-128             1.00   0.00  0.00  0.00  0.02  0.98  0.00  0.00  0.97  0.00
  H-130_H-129             1.00   0.00  0.00  0.00  0.01  0.99  0.00  0.00  0.00  0.00
  H-131_H-130             1.00   0.00  0.00  0.00  0.09  0.91  0.00  0.00  0.92  0.00
  H-132_H-131             1.00   0.00  0.00  0.00  0.32  0.68  0.00  0.00  0.01  0.00
  H-133_H-132             1.00   0.00  0.00  0.00  0.92  0.08  0.00  0.00  0.97  0.00
  H-134_H-133             1.00   0.00  0.00  0.00  0.97  0.03  0.00  0.00  0.07  0.00
  H-135_H-134             1.00   0.00  0.00  0.00  0.90  0.10  0.00  0.00  0.98  0.00
  H-136_H-135             1.00   0.00  0.00  0.00  0.92  0.08  0.00  0.00  0.58  0.00
  H-137_H-136             1.00   0.00  0.00  0.00  1.00  0.00  0.00  0.00  1.00  0.00
  H-138_H-137             1.00   0.00  0.00  0.00  0.17  0.83  0.00  0.00  0.17  0.00
  H-139_H-138             1.00   0.00  0.20  0.00  0.80  0.00  0.00  0.00  0.83  0.00
  H-210_H-29              1.55   0.00  0.00  0.00  1.00  0.00  0.00  0.00  0.85  0.00
  H-211_H-210             1.00   0.00  0.00  0.00  1.00  0.00  0.00  0.00  0.00  0.00
  H-212_H-211             1.00   0.00  0.00  0.00  0.98  0.02  0.00  0.00  0.99  0.00
  H-213_H-212             1.00   0.00  0.00  0.00  0.16  0.84  0.00  0.00  0.10  0.00
  H-214_H-213             1.00   0.00  0.00  0.00  0.12  0.88  0.00  0.00  0.91  0.00
  H-215_H-214             1.00   0.00  0.01  0.00  0.13  0.87  0.00  0.00  0.86  0.00
  H-216_H-215             1.00   0.00  0.00  0.00  0.15  0.85  0.00  0.00  0.00  0.00
  H-217_H-216             1.00   0.00  0.00  0.00  1.00  0.00  0.00  0.00  0.00  0.00
  H-218_H-217             1.00   0.00  0.06  0.00  0.94  0.00  0.00  0.00  0.93  0.00
  H-219_H-218             1.00   0.05  0.00  0.00  0.08  0.87  0.00  0.00  0.91  0.00
  H-21_H-SPS25          164.60   0.00  1.00  0.00  0.00  0.00  0.00  0.00  1.00  0.00
  H-220_H-219             1.00   0.05  0.00  0.00  0.19  0.76  0.00  0.00  0.00  0.00
  H-221_H-220             1.00   0.05  0.00  0.00  0.94  0.01  0.00  0.00  0.92  0.00
  H-222_H-221             1.00   0.04  0.00  0.00  0.07  0.88  0.00  0.00  0.93  0.00
  H-223_H-222             1.00   0.04  0.00  0.00  0.08  0.88  0.00  0.00  0.00  0.00
  H-224_H-223             1.00   0.03  0.00  0.00  0.95  0.02  0.00  0.00  0.89  0.00
  H-225_H-224             1.00   0.03  0.00  0.00  0.30  0.67  0.00  0.00  0.49  0.00
  H-226_H-225             1.00   0.03  0.00  0.00  0.31  0.66  0.00  0.00  0.50  0.00
  H-227_H-226             1.00   0.02  0.00  0.00  0.31  0.66  0.00  0.00  0.50  0.00
  H-228_H-227             1.00   0.02  0.00  0.00  0.33  0.65  0.00  0.00  0.70  0.00
  H-229_H-228             1.00   0.02  0.00  0.00  0.06  0.93  0.00  0.00  0.95  0.00
  H-230_H-229             1.00   0.02  0.00  0.00  0.05  0.94  0.00  0.00  0.48  0.00
  H-231_H-230             1.00   0.02  0.00  0.00  0.02  0.97  0.00  0.00  0.98  0.00
  H-232_H-231             1.00   0.01  0.00  0.00  0.02  0.97  0.00  0.00  0.01  0.00
  H-98_H-97               1.00   0.00  0.00  0.00  1.00  0.00  0.00  0.00  0.92  0.00
  H-99_H-98               1.00   0.00  0.00  0.00  1.00  0.00  0.00  0.00  0.78  0.00
  KAM_DOLE_FM             1.00   0.00  0.00  0.00  1.00  0.00  0.00  0.00  0.00  0.00
  S-10/9-H                1.00   0.00  0.00  0.00  1.00  0.00  0.00  0.00  0.35  0.00
  S-11/10-H               1.00   0.00  0.00  0.00  0.00  0.00  0.00  1.00  0.00  0.00
  S-12/SPS21              1.00   0.00  0.01  0.00  0.99  0.00  0.00  0.00  0.32  0.00
  S-13/12-H               1.00   0.17  0.01  0.00  0.61  0.00  0.00  0.21  0.62  0.00
  S-14/12-H               1.00   0.00  0.00  0.00  0.87  0.13  0.00  0.00  0.67  0.00
  S-140/141-              1.00   0.46  0.07  0.00  0.47  0.00  0.00  0.00  0.75  0.00
  S-141/142-              1.00   0.00  0.48  0.00  0.52  0.00  0.00  0.00  0.75  0.00
  S-142/143-              1.00   0.00  0.00  0.00  0.18  0.82  0.00  0.00  0.98  0.00
  S-143/144-              1.55   0.00  0.05  0.00  0.95  0.00  0.00  0.00  1.00  0.00
  S-144/148-              1.00   0.00  0.00  0.00  1.00  0.00  0.00  0.00  0.16  0.00
  S-145/144-              1.00   0.00  0.00  0.00  1.00  0.00  0.00  0.00  1.00  0.00
  S-146/145-              1.00   0.00  0.29  0.00  0.71  0.00  0.00  0.00  0.83  0.00
  S-147/146-              1.00   0.18  0.05  0.00  0.76  0.02  0.00  0.00  0.42  0.00
  S-148/149-              1.00   0.00  0.00  0.00  0.30  0.70  0.00  0.00  0.78  0.00
  S-149/150-              1.00   0.00  0.00  0.00  0.01  0.99  0.00  0.00  0.00  0.00
  S-15/14-H               1.00   0.00  0.00  0.00  0.00  0.00  0.00  1.00  0.00  0.00
  S-150/151-              1.00   0.00  0.01  0.00  0.91  0.08  0.00  0.00  0.99  0.00
  S-151/152-              1.00   0.00  0.00  0.00  1.00  0.00  0.00  0.00  0.03  0.00
  S-152/153-              1.00   0.00  0.00  0.00  0.00  0.00  0.00  1.00  0.00  0.00
  S-153/44-H              1.00   0.00  0.00  0.00  0.29  0.71  0.00  0.00  0.99  0.00
  S-154/153-              1.00   0.00  0.00  0.00  0.00  0.00  0.00  1.00  0.00  0.00
  S-155/154-              1.00   0.00  0.01  0.00  0.99  0.00  0.00  0.00  0.99  0.00
  S-156/155-              1.00   0.00  0.00  0.00  0.54  0.46  0.00  0.00  0.97  0.00
  S-157/156-              1.00   0.00  0.00  0.00  0.35  0.65  0.00  0.00  0.02  0.00
  S-158/157-              1.00   0.00  0.05  0.00  0.95  0.00  0.00  0.00  0.99  0.00
  S-159/154-              1.00   0.00  0.00  0.00  1.00  0.00  0.00  0.00  0.06  0.00
  S-16/15-H               1.00   0.00  0.00  0.00  0.99  0.01  0.00  0.00  0.99  0.00
  S-160/159-              1.00   0.00  0.00  0.00  0.99  0.01  0.00  0.00  0.96  0.00
  S-161/160-              1.00   0.00  0.00  0.00  0.84  0.16  0.00  0.00  1.00  0.00
  S-162/161-              1.00   0.00  0.00  0.00  0.08  0.92  0.00  0.00  0.94  0.00
  S-163/162-              1.00   0.00  0.00  0.00  0.40  0.60  0.00  0.00  1.00  0.00
  S-164/163-              1.00   0.00  0.00  0.00  0.06  0.94  0.00  0.00  0.87  0.00
  S-165/164-              1.00   0.00  0.00  0.00  1.00  0.00  0.00  0.00  0.34  0.00
  S-166/165-              1.00   0.00  0.21  0.00  0.79  0.00  0.00  0.00  0.83  0.00
  S-17/16-H               1.00   0.00  0.00  0.00  1.00  0.00  0.00  0.00  0.98  0.00
  S-18/10-H               1.00   0.00  0.00  0.00  1.00  0.00  0.00  0.00  0.95  0.00
  S-19/18-H               1.00   0.00  0.00  0.00  1.00  0.00  0.00  0.00  0.28  0.00
  S-20/19-H               1.00   0.00  0.00  0.00  1.00  0.00  0.00  0.00  0.99  0.00
  S-21/20-H               1.00   0.25  0.00  0.00  0.00  0.00  0.00  0.75  0.00  0.00
  S-22/20-H               1.00   0.00  0.00  0.00  0.03  0.97  0.00  0.00  0.00  0.00
  S-23/22-H               1.00   0.00  0.00  0.00  0.00  0.00  0.00  1.00  0.00  0.00
  S-24/22-H               1.22   0.00  0.00  0.00  0.20  0.80  0.00  0.00  0.03  0.00
  S-25/24-H               1.00   0.00  0.00  0.00  0.00  0.00  0.00  1.00  0.00  0.00
  S-26/24-H               1.00   0.00  0.00  0.00  0.00  0.00  0.00  1.00  0.00  0.00
  S-27/26-H               1.00   0.00  0.00  0.00  0.24  0.76  0.00  0.00  0.10  0.00
  S-28/27-H               1.00   0.00  0.01  0.00  0.99  0.00  0.00  0.00  0.05  0.00
  S-29/28-H               1.00   0.00  0.00  0.00  1.00  0.00  0.00  0.00  0.96  0.00
  S-30/29-H               1.00   0.00  0.00  0.00  1.00  0.00  0.00  0.00  0.00  0.00
  S-31/30-H               1.00   0.00  0.00  0.00  1.00  0.00  0.00  0.00  0.99  0.00
  S-32/33-H               1.00   0.00  0.00  0.00  1.00  0.00  0.00  0.00  1.00  0.00
  S-33/35-H               1.00   0.00  0.00  0.00  0.99  0.01  0.00  0.00  0.04  0.00
  S-34/33-H               1.00   0.00  0.00  0.00  1.00  0.00  0.00  0.00  1.00  0.00
  S-35/37-H               1.00   0.00  0.00  0.00  0.99  0.01  0.00  0.00  0.95  0.00
  S-36/35-H               1.00   0.00  0.01  0.00  0.99  0.00  0.00  0.00  1.00  0.00
  S-37/40-H               1.00   0.00  0.00  0.00  1.00  0.00  0.00  0.00  0.17  0.00
  S-38/37-H               1.00   0.00  0.08  0.00  0.92  0.00  0.00  0.00  0.92  0.00
  S-39/38-H               1.00   0.08  0.09  0.00  0.83  0.00  0.00  0.00  0.90  0.00
  S-40/57-H               1.00   0.00  0.00  0.00  0.98  0.02  0.00  0.00  0.77  0.00
  S-41/40-H               1.00   0.00  0.00  0.00  1.00  0.00  0.00  0.00  0.98  0.00
  S-42/43-H               1.00   0.00  0.04  0.00  0.96  0.00  0.00  0.00  1.00  0.00
  S-43/44-H               1.00   0.00  0.00  0.00  0.00  0.00  0.00  1.00  0.00  0.00
  S-44/45-H               1.00   0.00  0.00  0.00  0.30  0.70  0.00  0.00  0.00  0.00
  S-45/50-H               1.00   0.00  0.00  0.00  0.01  0.99  0.00  0.00  0.97  0.00
  S-46/45-H               2.08   0.01  0.00  0.00  0.00  0.00  0.00  0.99  0.00  0.00
  S-47/46-H               1.00   0.00  0.00  0.00  0.10  0.90  0.00  0.00  0.97  0.00
  S-48/48A-H              1.18   0.00  0.00  0.00  0.99  0.01  0.00  0.00  0.99  0.00
  S-48A/47-H              1.00   0.00  0.00  0.00  1.00  0.00  0.00  0.00  0.00  0.00
  S-49/48-H               1.00   0.00  0.00  0.00  0.99  0.01  0.00  0.00  1.00  0.00
  S-5/6-H                 2.03   0.00  0.23  0.00  0.00  0.77  0.00  0.00  0.77  0.00
  S-50/54-H               1.50   0.00  0.00  0.00  1.00  0.00  0.00  0.00  1.00  0.00
  S-51/50-H               2.45   0.00  0.00  0.00  0.00  0.00  0.00  1.00  0.00  0.00
  S-52/51-H               1.00   0.00  0.00  0.00  1.00  0.00  0.00  0.00  0.08  0.00
  S-53/51-H               3.03   0.00  0.47  0.00  0.53  0.00  0.00  0.00  0.75  0.00
  S-54/58-H               1.00   0.00  0.00  0.00  0.13  0.87  0.00  0.00  0.00  0.00
  S-55/54-H               1.00   0.02  0.00  0.00  0.00  0.00  0.00  0.98  0.00  0.00
  S-56/55-H               1.00   0.01  0.00  0.00  0.99  0.00  0.00  0.00  0.94  0.00
  S-57/56-H               1.00   0.00  0.00  0.00  0.98  0.02  0.00  0.00  0.09  0.00
  S-58/59-H               1.00   0.00  0.00  0.00  0.00  1.00  0.00  0.00  0.55  0.00
  S-59/61-H               1.20   0.00  0.00  0.00  0.01  0.99  0.00  0.00  0.84  0.00
  S-6/34-H                1.00   0.00  0.00  0.00  1.00  0.00  0.00  0.00  0.97  0.00
  S-60/59-H               1.00   0.25  0.00  0.00  0.04  0.00  0.00  0.70  0.03  0.00
  S-61/64-H               1.00   0.00  0.00  0.00  0.04  0.96  0.00  0.00  0.99  0.00
  S-62/61-H               1.00   0.00  0.00  0.00  0.04  0.00  0.00  0.96  0.02  0.00
  S-64/73-H               1.00   0.00  0.00  0.00  0.93  0.07  0.00  0.00  0.97  0.00
  S-65/64-H               1.00   0.00  0.00  0.00  0.00  0.00  0.00  1.00  0.00  0.00
  S-66/65-H               1.00   0.00  0.00  0.00  1.00  0.00  0.00  0.00  0.07  0.00
  S-67/66-H               1.00   0.00  0.00  0.00  1.00  0.00  0.00  0.00  1.00  0.00
  S-68/67-H               1.00   0.25  0.00  0.00  0.00  0.00  0.00  0.75  0.00  0.00
  S-69/67-H               1.00   0.00  0.00  0.00  0.98  0.02  0.00  0.00  0.73  0.00
  S-7/5-H                 1.00   0.17  0.00  0.00  0.83  0.00  0.00  0.00  0.82  0.00
  S-70/69-H               2.15   0.00  0.00  0.00  0.12  0.88  0.00  0.00  0.99  0.00
  S-71/70-H               2.85   0.00  0.47  0.00  0.53  0.00  0.00  0.00  0.75  0.00
  S-73/74-H               1.00   0.00  0.00  0.00  0.00  0.00  0.00  1.00  0.00  0.00
  S-74/83-H               1.00   0.00  0.00  0.00  1.00  0.00  0.00  0.00  0.00  0.00
  S-75/74-H               1.00   0.00  0.00  0.00  0.00  0.00  0.00  1.00  0.00  0.00
  S-76/75-H               1.00   0.00  0.00  0.00  1.00  0.00  0.00  0.00  1.00  0.00
  S-77/76-H               1.00   0.00  0.01  0.00  0.99  0.00  0.00  0.00  0.89  0.00
  S-78/77-H               1.00   0.00  0.00  0.00  0.99  0.01  0.00  0.00  0.89  0.00
  S-79/78-H               1.00   0.00  0.00  0.00  1.00  0.00  0.00  0.00  0.00  0.00
  S-8/7-H                 1.00   0.01  0.00  0.00  0.99  0.00  0.00  0.00  0.98  0.00
  S-80/79-H               1.00   0.00  0.00  0.00  0.98  0.02  0.00  0.00  0.99  0.00
  S-81/80-H               1.00   0.00  0.00  0.00  0.99  0.01  0.00  0.00  0.98  0.00
  S-82/80-H               1.00   0.00  0.00  0.00  0.99  0.01  0.00  0.00  0.99  0.00
  S-83/84-H               1.00   0.00  0.00  0.00  0.00  0.00  0.00  1.00  0.00  0.00
  S-84/93-H               1.00   0.00  0.00  0.00  1.00  0.00  0.00  0.00  0.91  0.00
  S-86/SPS26              1.46   0.00  0.00  0.00  1.00  0.00  0.00  0.00  1.00  0.00
  S-87/86-H               1.00   0.00  0.63  0.00  0.28  0.09  0.00  0.00  0.82  0.00
  S-88/86-H               1.00   0.00  0.00  0.00  0.74  0.26  0.00  0.00  0.00  0.00
  S-89/88-H               1.22   0.00  0.01  0.00  0.97  0.02  0.00  0.00  0.99  0.00
  S-9/8-H                 1.27   0.00  0.00  0.00  1.00  0.00  0.00  0.00  0.79  0.00
  S-90/89-H               1.00   0.00  0.00  0.00  1.00  0.00  0.00  0.00  0.56  0.00
  S-91/90-H               1.00   0.00  0.58  0.00  0.42  0.00  0.00  0.00  0.75  0.00
  S-92/90-H               1.00   0.00  0.25  0.00  0.75  0.00  0.00  0.00  0.75  0.00
  S-93/94-H               2.42   0.00  0.00  0.00  1.00  0.00  0.00  0.00  0.00  0.00
  S-94/WWPTP              1.00   0.00  0.00  0.00  1.00  0.00  0.00  0.00  0.97  0.00
  S-96/94-H               1.00   0.02  0.00  0.00  0.00  0.00  0.00  0.98  0.00  0.00
  S-97/96-H               1.00   0.01  0.00  0.00  0.99  0.00  0.00  0.00  0.00  0.00
  S-WWPTP/32              1.11   0.00  0.00  0.00  1.00  0.00  0.00  0.00  0.00  0.00
  
  
  *************************
  Conduit Surcharge Summary
  *************************
  
  ----------------------------------------------------------------------------
                                                           Hours        Hours 
                         --------- Hours Full --------   Above Full   Capacity
  Conduit                Both Ends  Upstream  Dnstream   Normal Flow   Limited
  ----------------------------------------------------------------------------
  H-022_H-021                 8.31      8.31     11.95      0.01         0.01
  H-023_H-022                 0.01      0.01      8.31      0.01         0.01
  H-21_H-SPS25                0.01      0.01     11.99      0.01         0.01
  S-12/SPS21                  0.01      0.01     11.89      0.01         0.01
  S-30/29-H                   0.01      0.01      0.01      0.91         0.01
  S-74/83-H                   0.01      0.01      0.01      5.66         0.01
  S-86/SPS26                  0.01      0.01     12.00      0.01         0.01
  
  
  ***************
  Pumping Summary
  ***************
  
  ---------------------------------------------------------------------------------------------------------
                                                  Min       Avg       Max     Total     Power    % Time Off
                        Percent   Number of      Flow      Flow      Flow    Volume     Usage    Pump Curve
  Pump                 Utilized   Start-Ups       GPM       GPM       GPM  10^6 gal     Kw-hr    Low   High
  ---------------------------------------------------------------------------------------------------------
  PS217-P1                 0.00           0      0.00      0.00      0.00     0.000      0.00    0.0    0.0
  PS217-P2                 0.00           0      0.00      0.00      0.00     0.000      0.00    0.0    0.0
  PS255-P1                 0.00           0      0.00      0.00      0.00     0.000      0.00    0.0    0.0
  PS255-P2                 0.09           1      0.00      1.65      1.65     0.000      0.00    0.0  100.0
  PS255-P3                 0.00           0      0.00      0.00      0.00     0.000      0.00    0.0    0.0
  PS265-P1                 0.00           0      0.00      0.00      0.00     0.000      0.00    0.0    0.0
  PS265-P2                 0.00           0      0.00      0.00      0.00     0.000      0.00    0.0    0.0
  

  Analysis begun on:  Wed Jun 24 14:55:02 2026
  Analysis ended on:  Wed Jun 24 14:55:03 2026
  Total elapsed time: 00:00:01