
  EPA STORM WATER MANAGEMENT MODEL - VERSION 5.2 (Build 5.2.4)
  ------------------------------------------------------------

  
  ERROR 205: invalid keyword 0 at line 24738 of [WEIR] section:
  1308660022:1308370001 ScarboroughPond  1308660022       TRANSVERSE   8.5        3.3        NO       0        0          0         

  
  ERROR 205: invalid keyword 0 at line 24739 of [WEIR] section:
  811640001:Nep00000 USGS011055566    Neponset000000   TRANSVERSE   8          3.3        NO       0        0          0         

  
  ERROR 205: invalid keyword 0 at line 24740 of [WEIR] section:
  BGH1WR           2108640002       MR077            TRANSVERSE   13         3.3        NO       0        0          0         

  
  ERROR 205: invalid keyword 0 at line 24741 of [WEIR] section:
  TurtlePondWR     TurtlePond       Stony5000        V-NOTCH      8.4        2.5        NO       0        0          0         


  Analysis begun on:  Wed Jun 24 14:55:05 2026
  Analysis ended on:  Wed Jun 24 14:55:05 2026
  Total elapsed time: < 1 sec