
  EPA STORM WATER MANAGEMENT MODEL - VERSION 5.2 (Build 5.2.4)
  ------------------------------------------------------------

  WARNING 03: negative offset ignored for Link CB-N24-312_TS-N24-803
  WARNING 03: negative offset ignored for Link CB-O24-307_MH-N24-107
  WARNING 03: negative offset ignored for Link CB-O24-317_MH-O24-106
  WARNING 03: negative offset ignored for Link CB-O24-324_JS-O25-500
  WARNING 03: negative offset ignored for Link CB-O25-305_JS-P25-504
  WARNING 03: negative offset ignored for Link CB-P14-305_MH-P14-100
  WARNING 03: negative offset ignored for Link CB-P23-316_MH-P23-107
  WARNING 03: negative offset ignored for Link CB-P23-316_MH-P23-107
  WARNING 03: negative offset ignored for Link CDT-19
  WARNING 04: minimum elevation drop used for Conduit CR-H22-803_HW-H22-802
  WARNING 03: negative offset ignored for Link CR-O34-805_JS-O34-503
  WARNING 03: negative offset ignored for Link CR-O34-806_JS-O34-504
  WARNING 03: negative offset ignored for Link CR-P14-801_CB-P14-305
  WARNING 04: minimum elevation drop used for Conduit CR-R20-812_IN-R20-1006
  WARNING 04: minimum elevation drop used for Conduit CR-S21-802_CB-S21-305
  WARNING 04: minimum elevation drop used for Conduit GI-K16-1000_JS-K16-500
  WARNING 03: negative offset ignored for Link HW-H22-802_HW-H22-804
  WARNING 04: minimum elevation drop used for Conduit HW-H22-802_HW-H22-804
  WARNING 03: negative offset ignored for Link HW-H22-802_HW-H22-804_2
  WARNING 03: negative offset ignored for Link HW-H22-802_HW-H22-804_3
  WARNING 03: negative offset ignored for Link IN-L27-1000_JS-L27-501
  WARNING 03: negative offset ignored for Link IN-R20-1007_IN-R20-1008
  WARNING 04: minimum elevation drop used for Conduit IN-R20-1007_IN-R20-1008
  WARNING 03: negative offset ignored for Link IN-R20-1008_CB-R21-300
  WARNING 04: minimum elevation drop used for Conduit JS-J24-500_JS-J24-501
  WARNING 04: minimum elevation drop used for Conduit JS-L19-510_MH-L19-104
  WARNING 03: negative offset ignored for Link JS-L22-511_JS-L22-509
  WARNING 03: negative offset ignored for Link JS-L22-512_JS-L22-511
  WARNING 03: negative offset ignored for Link JS-L22-513_JS-L22-512
  WARNING 04: minimum elevation drop used for Conduit JS-L22-513_JS-L22-512
  WARNING 03: negative offset ignored for Link JS-L27-501_IN-L27-1001
  WARNING 04: minimum elevation drop used for Conduit JS-N22-518_MH-N22-100
  WARNING 04: minimum elevation drop used for Conduit JS-N22-533_JS-N22-534
  WARNING 03: negative offset ignored for Link JS-N24-500_MH-N24-105
  WARNING 03: negative offset ignored for Link JS-N24-502_JS-N24-503
  WARNING 03: negative offset ignored for Link JS-N24-502_JS-N24-503
  WARNING 03: negative offset ignored for Link JS-N24-503_JS-N24-500
  WARNING 03: negative offset ignored for Link JS-N24-503_JS-N24-500
  WARNING 03: negative offset ignored for Link JS-O14-501_JS-O14-505
  WARNING 03: negative offset ignored for Link JS-O14-504_JS-O14-505
  WARNING 03: negative offset ignored for Link JS-O14-505_JS-O14-506
  WARNING 03: negative offset ignored for Link JS-O14-505_JS-O14-506
  WARNING 03: negative offset ignored for Link JS-O14-506_MH-O14-103
  WARNING 03: negative offset ignored for Link JS-O14-506_MH-O14-103
  WARNING 03: negative offset ignored for Link JS-O14-507_JS-O14-508
  WARNING 03: negative offset ignored for Link JS-O14-507_JS-O14-508
  WARNING 03: negative offset ignored for Link JS-O14-508_JS-O14-509
  WARNING 03: negative offset ignored for Link JS-O15-500_JSM-O15-508
  WARNING 03: negative offset ignored for Link JS-O15-501_JS-O15-500
  WARNING 03: negative offset ignored for Link JS-O15-501_JS-O15-500
  WARNING 03: negative offset ignored for Link JS-O25-500_CB-O25-305
  WARNING 03: negative offset ignored for Link JS-O34-500_JS-O34-502
  WARNING 03: negative offset ignored for Link JS-P17-503_TS-P17-804
  WARNING 03: negative offset ignored for Link JS-P23-506_MH-P23-105
  WARNING 03: negative offset ignored for Link JS-P23-507_CB-P23-316
  WARNING 04: minimum elevation drop used for Conduit JS-P24-507_TS-P24-805
  WARNING 03: negative offset ignored for Link JS-P28-502_JS-P28-504
  WARNING 03: negative offset ignored for Link JS-P28-503_JS-P28-504
  WARNING 03: negative offset ignored for Link JS-Q23-500_JS-P23-506
  WARNING 03: negative offset ignored for Link JSM-N24-507_JS-N24-502
  WARNING 04: minimum elevation drop used for Conduit JSM-O18-511_JS-O18-502
  WARNING 03: negative offset ignored for Link MH-H24-107_CB-H24-311
  WARNING 04: minimum elevation drop used for Conduit MH-H24-107_CB-H24-311
  WARNING 04: minimum elevation drop used for Conduit MH-L19-102_JS-L19-501
  WARNING 03: negative offset ignored for Link MH-L24-106_JS-L24-502
  WARNING 03: negative offset ignored for Link MH-L24-107_MH-L24-106
  WARNING 03: negative offset ignored for Link MH-N24-107_CB-N24-312
  WARNING 03: negative offset ignored for Link MH-N24-107_CB-N24-312
  WARNING 03: negative offset ignored for Link MH-O14-103_JS-O14-507
  WARNING 03: negative offset ignored for Link MH-O14-103_JS-O14-507
  WARNING 03: negative offset ignored for Link MH-O18-128_JSM-O18-511
  WARNING 04: minimum elevation drop used for Conduit MH-O18-128_JSM-O18-511
  WARNING 04: minimum elevation drop used for Conduit MH-O19-140_MH-O19-141
  WARNING 03: negative offset ignored for Link MH-O24-106_CB-O24-324
  WARNING 03: negative offset ignored for Link MH-O24-106_CB-O24-324
  WARNING 03: negative offset ignored for Link MH-P17-105_JS-O17-501
  WARNING 04: minimum elevation drop used for Conduit MH-R27-103_MH-R27-105
  WARNING 04: minimum elevation drop used for Conduit MH-R27-105_JS-R27-500
  WARNING 03: negative offset ignored for Link MH-R27-105_MH-R27-106
  WARNING 04: minimum elevation drop used for Conduit MH-R27-105_MH-R27-106
  WARNING 04: minimum elevation drop used for Conduit MH-R30-102_JS-R30-500
  WARNING 04: minimum elevation drop used for Conduit OUTFALL_DA
  WARNING 04: minimum elevation drop used for Conduit OUTFALL_HB_02
  WARNING 04: minimum elevation drop used for Conduit OUTFALL_HB_03
  WARNING 04: minimum elevation drop used for Conduit OUTFALL_HS_01
  WARNING 04: minimum elevation drop used for Conduit OUTFALL_NV_02
  WARNING 04: minimum elevation drop used for Conduit OUTFALL_WW
  WARNING 03: negative offset ignored for Link TS-K14-803_CB-K14-325
  WARNING 04: minimum elevation drop used for Conduit TS-L19-812_TS-L19-811
  WARNING 04: minimum elevation drop used for Conduit TS-N14-800_JS-N14-500
  WARNING 04: minimum elevation drop used for Conduit TS-N14-803_JS-N14-501
  WARNING 03: negative offset ignored for Link TS-O34-804_CR-O34-805
  WARNING 03: negative offset ignored for Link TS-O34-804_CR-O34-806
  WARNING 03: negative offset ignored for Link TS-O34-804_JS-O34-500
  WARNING 03: negative offset ignored for Link TS-P17-804_MH-P17-105
  WARNING 03: negative offset ignored for Link TS-P17-804_MH-P17-105
  WARNING 03: negative offset ignored for Link TS-R27-801_JS-R27-500
  WARNING 02: maximum depth increased for Node CR-R23-801
  WARNING 02: maximum depth increased for Node CR-S21-802
  WARNING 02: maximum depth increased for Node GB-I15-804
  WARNING 02: maximum depth increased for Node IN-I15-1000
  WARNING 02: maximum depth increased for Node IN-J16-1000
  WARNING 02: maximum depth increased for Node IN-J16-1004
  WARNING 02: maximum depth increased for Node IN-M28-1000
  WARNING 02: maximum depth increased for Node IN-R24-1000
  WARNING 02: maximum depth increased for Node IN-R24-1001
  WARNING 02: maximum depth increased for Node JS-I14-500
  WARNING 02: maximum depth increased for Node JS-I14-501
  WARNING 02: maximum depth increased for Node JS-I15-500
  WARNING 02: maximum depth increased for Node JS-I15-501
  WARNING 02: maximum depth increased for Node JS-I15-502
  WARNING 02: maximum depth increased for Node JS-I15-504
  WARNING 02: maximum depth increased for Node JS-J15-502
  WARNING 02: maximum depth increased for Node JS-J16-500
  WARNING 02: maximum depth increased for Node JS-J16-501
  WARNING 02: maximum depth increased for Node JS-J16-503
  WARNING 02: maximum depth increased for Node JS-J16-504
  WARNING 02: maximum depth increased for Node JS-J16-505
  WARNING 02: maximum depth increased for Node JS-M28-501
  WARNING 02: maximum depth increased for Node JS-N37-500
  WARNING 02: maximum depth increased for Node MH-R31-102
  WARNING 02: maximum depth increased for Node OL-S21-801
  WARNING 02: maximum depth increased for Node TS-I13-801
  WARNING 02: maximum depth increased for Node TS-I15-807
  WARNING 02: maximum depth increased for Node TS-J17-800
  WARNING 02: maximum depth increased for Node TS-R22-803
  WARNING 02: maximum depth increased for Node TS-R22-804
  WARNING 02: maximum depth increased for Node TS-R23-800
  WARNING 02: maximum depth increased for Node TS-R24-800
  
  ****************
  Analysis Options
  ****************
  Flow Units ............... CFS
  Process Models:
    Rainfall/Runoff ........ YES
    RDII ................... NO
    Snowmelt ............... NO
    Groundwater ............ NO
    Flow Routing ........... YES
    Ponding Allowed ........ YES
    Water Quality .......... NO
  Infiltration Method ...... HORTON
  Flow Routing Method ...... DYNWAVE
  Surcharge Method ......... EXTRAN
  Starting Date ............ 02/01/2002 00:00:00
  Ending Date .............. 02/02/2002 23:00:00
  Antecedent Dry Days ...... 5.0
  Report Time Step ......... 00:05:00
  Wet Time Step ............ 00:05:00
  Dry Time Step ............ 01:00:00
  Routing Time Step ........ 5.00 sec
  Variable Time Step ....... YES
  Maximum Trials ........... 4
  Number of Threads ........ 1
  Head Tolerance ........... 0.005000 ft
  
  
  **************************        Volume         Depth
  Runoff Quantity Continuity     acre-feet        inches
  **************************     ---------       -------
  Total Precipitation ......      7437.193         3.930
  Evaporation Loss .........         0.000         0.000
  Infiltration Loss ........      3796.084         2.006
  Surface Runoff ...........      3509.941         1.855
  Final Storage ............       134.354         0.071
  Continuity Error (%) .....        -0.043
  
  
  **************************        Volume        Volume
  Flow Routing Continuity        acre-feet      10^6 gal
  **************************     ---------     ---------
  Dry Weather Inflow .......         0.000         0.000
  Wet Weather Inflow .......      3507.089      1142.837
  Groundwater Inflow .......         0.000         0.000
  RDII Inflow ..............         0.000         0.000
  External Inflow ..........        73.159        23.840
  External Outflow .........      3485.602      1135.836
  Flooding Loss ............         0.000         0.000
  Evaporation Loss .........         0.000         0.000
  Exfiltration Loss ........         0.000         0.000
  Initial Stored Volume ....         0.404         0.132
  Final Stored Volume ......        85.328        27.805
  Continuity Error (%) .....         0.272
  
  
  *************************
  Highest Continuity Errors
  *************************
  Node MH-F28-100 (17.48%)
  Node MH-F28-103 (14.29%)
  Node MH-F28-105 (13.21%)
  Node MH-F28-101 (10.17%)
  Node JS-P21-515 (6.75%)
  
  
  ***************************
  Time-Step Critical Elements
  ***************************
  Link JSM-O18-506_JSM-O18-508 (13.14%)
  Link IN-R20-1007_IN-R20-1008 (3.87%)
  Link IN-I27-1001_JS-I27-500 (2.40%)
  Link MIS-P25-809_JS-P25-509 (2.32%)
  Link JS-I27-500_IN-I27-1000 (1.90%)
  
  
  ********************************
  Highest Flow Instability Indexes
  ********************************
  Link OL-L26-800_IN-L26-1000 (99)
  Link JS-N24-501_MH-N24-104 (96)
  Link MH-O34-103_MH-O34-104 (94)
  Link MH-O34-104_CR-O34-802 (92)
  Link CB-R21-300_CB-R21-301 (91)
  
  
  *********************************
  Most Frequent Nonconverging Nodes
  *********************************
  Node OUTFALL_DA (39.60%)
  Node OUTFALL_ED (39.60%)
  Node OUTFALL_EF (39.60%)
  Node OUTFALL_ER_01 (39.60%)
  Node OUTFALL_ER_02 (39.60%)
  
  
  *************************
  Routing Time Step Summary
  *************************
  Minimum Time Step           :     0.08 sec
  Average Time Step           :     3.90 sec
  Maximum Time Step           :     5.00 sec
  % of Time in Steady State   :     0.00
  Average Iterations per Step :     3.02
  % of Steps Not Converging   :    39.60
  Time Step Frequencies       :
      5.000 -  0.910 sec      :    90.97 %
      0.910 -  0.166 sec      :     8.94 %
      0.166 -  0.030 sec      :     0.08 %
      0.030 -  0.005 sec      :     0.00 %
      0.005 -  0.001 sec      :     0.00 %
  
  
  ***************************
  Subcatchment Runoff Summary
  ***************************
  
  ------------------------------------------------------------------------------------------------------------------------------
                            Total      Total      Total      Total     Imperv       Perv      Total       Total     Peak  Runoff
                           Precip      Runon       Evap      Infil     Runoff     Runoff     Runoff      Runoff   Runoff   Coeff
  Subcatchment                 in         in         in         in         in         in         in    10^6 gal      CFS
  ------------------------------------------------------------------------------------------------------------------------------
  DA01                       3.93       0.00       0.00       3.78       0.14       0.00       0.14        0.48     4.78   0.036
  DA02                       3.93       0.00       0.00       3.34       0.58       0.00       0.58        1.85    18.26   0.147
  DA03                       3.93       0.00       0.00       3.67       0.25       0.00       0.25        0.88     8.80   0.063
  DA04                       3.93       0.00       0.00       1.66       2.19       0.00       2.19        1.94    18.59   0.557
  DA05                       3.93       0.00       0.00       1.66       2.18       0.00       2.18        0.94     8.85   0.556
  DA06                       3.93       0.00       0.00       1.82       2.06       0.00       2.06        2.12    21.23   0.525
  DA07                       3.93       0.00       0.00       1.66       2.22       0.00       2.22        2.53    25.32   0.565
  DA08                       3.93       0.00       0.00       1.68       2.16       0.00       2.16        6.04    57.23   0.550
  DA09                       3.93       0.00       0.00       1.80       2.04       0.00       2.04        1.35    12.51   0.518
  DA10                       3.93       0.00       0.00       1.85       2.02       0.00       2.02        2.08    20.64   0.513
  DA11                       3.93       0.00       0.00       1.66       2.16       0.00       2.16        3.51    31.04   0.550
  ED01                       3.93       0.00       0.00       3.10       0.82       0.00       0.82        3.68    36.90   0.207
  ED02                       3.93       0.00       0.00       3.49       0.42       0.00       0.42        2.80    23.88   0.106
  ED03                       3.93       0.00       0.00       3.24       0.65       0.00       0.65        3.93    32.80   0.166
  ED04                       3.93       0.00       0.00       3.00       0.90       0.00       0.90        5.46    54.12   0.230
  ED05                       3.93       0.00       0.00       1.31       2.45       0.00       2.45       16.15   125.54   0.623
  ED06                       3.93       0.00       0.00       2.50       1.40       0.00       1.40        3.22    32.29   0.355
  ED07                       3.93       0.00       0.00       2.28       1.63       0.00       1.63        2.07    20.66   0.414
  ED08                       3.93       0.00       0.00       2.28       1.51       0.00       1.51        7.66    53.94   0.385
  ED09                       3.93       0.00       0.00       1.30       2.44       0.00       2.44        7.00    52.04   0.620
  EF01                       3.93       0.00       0.00       1.30       2.55       0.00       2.55       10.20   101.48   0.650
  EF02                       3.93       0.00       0.00       1.30       2.53       0.00       2.53        9.76    94.28   0.645
  EF03                       3.93       0.00       0.00       1.05       2.75       0.00       2.75       22.67   203.06   0.699
  EF04                       3.93       0.00       0.00       1.30       2.41       0.00       2.41        1.79    12.46   0.613
  EF05                       3.93       0.00       0.00       1.25       2.60       0.00       2.60        1.00     9.82   0.663
  EF06                       3.93       0.00       0.00       1.30       2.54       0.00       2.54        1.98    19.45   0.647
  EF07                       3.93       0.00       0.00       1.30       2.55       0.00       2.55        2.55    25.44   0.650
  EF08                       3.93       0.00       0.00       1.30       2.57       0.00       2.57        1.78    17.85   0.653
  EF09                       3.93       0.00       0.00       1.30       2.55       0.00       2.55        3.04    30.08   0.649
  EF10                       3.93       0.00       0.00       1.30       2.57       0.00       2.57        1.37    13.73   0.654
  EF11                       3.93       0.00       0.00       1.29       2.58       0.00       2.58        1.92    19.17   0.657
  EF12                       3.93       0.00       0.00       1.30       2.55       0.00       2.55        2.39    23.83   0.650
  EF13                       3.93       0.00       0.00       1.30       2.58       0.00       2.58        1.68    16.77   0.656
  EF14                       3.93       0.00       0.00       1.30       2.56       0.00       2.56        4.49    44.84   0.651
  EF15                       3.93       0.00       0.00       1.30       2.57       0.00       2.57        3.61    36.14   0.654
  EF16                       3.93       0.00       0.00       1.30       2.35       0.00       2.35        6.68    40.33   0.598
  EF17                       3.93       0.00       0.00       1.30       2.56       0.00       2.56        2.13    21.34   0.652
  ER01                       3.93       0.00       0.00       0.94       2.88       0.00       2.88        1.07    10.20   0.733
  ER02                       3.93       0.00       0.00       1.59       2.26       0.00       2.26        1.24    11.91   0.574
  ER03                       3.93       0.00       0.00       1.35       2.48       0.00       2.48        2.53    23.72   0.631
  ER04                       3.93       0.00       0.00       1.26       2.57       0.00       2.57        1.37    13.16   0.655
  ER05                       3.93       0.00       0.00       1.56       2.28       0.00       2.28        1.53    14.73   0.580
  ER06                       3.93       0.00       0.00       1.98       1.90       0.00       1.90        2.27    22.62   0.484
  ER07                       3.93       0.00       0.00       1.65       2.19       0.00       2.19        6.54    61.98   0.557
  ER08                       3.93       0.00       0.00       0.89       2.95       0.00       2.95        2.26    22.28   0.749
  ER09                       3.93       0.00       0.00       1.57       2.28       0.00       2.28        4.24    40.89   0.580
  ER10                       3.93       0.00       0.00       1.07       2.79       0.00       2.79        1.89    18.95   0.711
  ER11                       3.93       0.00       0.00       1.83       2.04       0.00       2.04        3.09    30.35   0.518
  ER12                       3.93       0.00       0.00       1.48       2.27       0.00       2.27        1.73    12.80   0.579
  ER13                       3.93       0.00       0.00       1.04       2.81       0.00       2.81        3.21    32.01   0.716
  ER14                       3.93       0.00       0.00       1.31       2.58       0.00       2.58        2.14    21.34   0.655
  ER15                       3.93       0.00       0.00       1.48       2.36       0.00       2.36        5.77    54.48   0.600
  ER16                       3.93       0.00       0.00       1.46       2.40       0.00       2.40        3.06    30.42   0.611
  ER17                       3.93       0.00       0.00       1.43       2.43       0.00       2.43        2.74    27.02   0.618
  ER18                       3.93       0.00       0.00       1.07       2.77       0.00       2.77        4.22    41.57   0.705
  ER19                       3.93       0.00       0.00       0.77       3.08       0.00       3.08        1.02    10.20   0.784
  ER20                       3.93       0.00       0.00       0.77       3.08       0.00       3.08        2.13    21.26   0.785
  ER21                       3.93       0.00       0.00       1.52       2.34       0.00       2.34        1.48    14.69   0.596
  ER22                       3.93       0.00       0.00       0.77       3.09       0.00       3.09        5.16    51.66   0.786
  ER23                       3.93       0.00       0.00       1.47       2.39       0.00       2.39        4.45    44.32   0.609
  ER24                       3.93       0.00       0.00       1.56       2.29       0.00       2.29        3.64    35.23   0.583
  ER25                       3.93       0.00       0.00       1.08       2.76       0.00       2.76        0.13     1.28   0.702
  ER26                       3.93       0.00       0.00       0.77       3.11       0.00       3.11        1.38    13.83   0.792
  ER27                       3.93       0.00       0.00       0.86       3.02       0.00       3.02        1.31    13.05   0.769
  ER28                       3.93       0.00       0.00       0.92       2.97       0.00       2.97        0.81     8.04   0.756
  EV01                       3.93       0.00       0.00       1.69       2.14       0.00       2.14       12.71   115.27   0.543
  EV02                       3.93       0.00       0.00       1.54       2.31       0.00       2.31        9.93    95.16   0.587
  EV03                       3.93       0.00       0.00       2.99       0.92       0.00       0.92        1.00    10.01   0.234
  EV04                       3.93       0.00       0.00       1.63       2.23       0.00       2.23        1.73    16.94   0.566
  EV05                       3.93       0.00       0.00       2.35       1.55       0.00       1.55        1.79    17.94   0.394
  EV06                       3.93       0.00       0.00       1.74       2.15       0.00       2.15        0.98     9.83   0.548
  EV07                       3.93       0.00       0.00       2.25       1.66       0.00       1.66        0.46     4.61   0.423
  EV08                       3.93       0.00       0.00       1.77       2.12       0.00       2.12        3.72    37.22   0.540
  EV09                       3.93       0.00       0.00       0.77       3.11       0.00       3.11        3.28    32.70   0.792
  EV10                       3.93       0.00       0.00       0.81       3.07       0.00       3.07        3.13    31.33   0.781
  EV11                       3.93       0.00       0.00       1.49       2.40       0.00       2.40        3.58    35.85   0.611
  EV12                       3.93       0.00       0.00       2.05       1.84       0.00       1.84        2.42    24.24   0.467
  EV13                       3.93       0.00       0.00       0.77       3.09       0.00       3.09        2.14    21.39   0.787
  EV14                       3.93       0.00       0.00       1.90       2.00       0.00       2.00        1.88    18.79   0.508
  EV15                       3.93       0.00       0.00       1.29       2.59       0.00       2.59        1.92    19.26   0.658
  EV16                       3.93       0.00       0.00       0.77       3.10       0.00       3.10        2.63    26.31   0.789
  EV17                       3.93       0.00       0.00       0.77       3.10       0.00       3.10        1.58    15.83   0.788
  EV18                       3.93       0.00       0.00       0.77       3.11       0.00       3.11        1.75    17.51   0.791
  EV19                       3.93       0.00       0.00       1.91       1.94       0.00       1.94       11.82   110.13   0.494
  EV20                       3.93       0.00       0.00       3.12       0.79       0.00       0.79        1.37    13.72   0.202
  EV21                       3.93       0.00       0.00       3.07       0.84       0.00       0.84        3.32    33.14   0.214
  EV22                       3.93       0.00       0.00       3.40       0.52       0.00       0.52        2.09    20.96   0.131
  EV23                       3.93       0.00       0.00       2.95       0.95       0.00       0.95        9.63    93.80   0.241
  EV24                       3.93       0.00       0.00       3.11       0.80       0.00       0.80        4.31    43.07   0.204
  EV25                       3.93       0.00       0.00       3.39       0.53       0.00       0.53        1.81    18.11   0.135
  EV26                       3.93       0.00       0.00       2.69       1.20       0.00       1.20        8.52    83.75   0.305
  EV27                       3.93       0.00       0.00       2.58       1.31       0.00       1.31        3.92    38.74   0.333
  HB01                       3.93       0.00       0.00       1.66       2.24       0.00       2.24        0.62     6.18   0.569
  HB02                       3.93       0.00       0.00       1.67       2.22       0.00       2.22        1.38    13.86   0.565
  HB03                       3.93       0.00       0.00       2.72       1.19       0.00       1.19        1.39    13.89   0.303
  HB04                       3.93       0.00       0.00       1.70       2.19       0.00       2.19        2.35    23.57   0.556
  HB05                       3.93       0.00       0.00       1.66       2.23       0.00       2.23        0.48     4.79   0.568
  HB06                       3.93       0.00       0.00       1.54       2.34       0.00       2.34        2.34    23.45   0.596
  HB07                       3.93       0.00       0.00       2.43       1.46       0.00       1.46        4.03    40.32   0.372
  HB08                       3.93       0.00       0.00       1.73       2.15       0.00       2.15        5.46    54.54   0.547
  HB09                       3.93       0.00       0.00       2.61       1.29       0.00       1.29        2.51    24.94   0.328
  HB10                       3.93       0.00       0.00       1.82       2.07       0.00       2.07        3.18    31.87   0.526
  HB11                       3.93       0.00       0.00       1.57       2.33       0.00       2.33        3.40    33.91   0.592
  HB12                       3.93       0.00       0.00       2.86       1.05       0.00       1.05        6.52    65.29   0.266
  HB13                       3.93       0.00       0.00       3.24       0.67       0.00       0.67        3.17    31.72   0.172
  HB14                       3.93       0.00       0.00       3.25       0.66       0.00       0.66        2.90    29.04   0.169
  HB15                       3.93       0.00       0.00       3.24       0.68       0.00       0.68        0.48     4.76   0.172
  HB16                       3.93       0.00       0.00       1.77       2.09       0.00       2.09        5.72    55.43   0.531
  HB17                       3.93       0.00       0.00       1.76       2.13       0.00       2.13        0.52     5.16   0.541
  HB18                       3.93       0.00       0.00       1.45       2.42       0.00       2.42        5.67    56.75   0.616
  HS01                       3.93       0.00       0.00       1.46       2.39       0.00       2.39        0.80     7.91   0.609
  HS02                       3.93       0.00       0.00       1.73       2.14       0.00       2.14        3.29    32.59   0.544
  HS03                       3.93       0.00       0.00       2.04       1.83       0.00       1.83        4.00    39.41   0.465
  HS04                       3.93       0.00       0.00       1.52       2.35       0.00       2.35        1.95    19.49   0.599
  HS05                       3.93       0.00       0.00       1.54       2.31       0.00       2.31        0.60     5.85   0.588
  HS06                       3.93       0.00       0.00       1.66       2.21       0.00       2.21        3.74    37.13   0.562
  HS07                       3.93       0.00       0.00       1.66       2.21       0.00       2.21        2.20    21.88   0.562
  HS08                       3.93       0.00       0.00       1.67       2.17       0.00       2.17        9.65    88.88   0.551
  JS01                       3.93       0.00       0.00       1.45       2.39       0.00       2.39        6.60    63.51   0.608
  JS02                       3.93       0.00       0.00       1.30       2.55       0.00       2.55        2.53    24.99   0.648
  JS03                       3.93       0.00       0.00       1.49       2.37       0.00       2.37        3.06    30.25   0.603
  JS04                       3.93       0.00       0.00       1.71       2.16       0.00       2.16        2.08    20.81   0.550
  JS05                       3.93       0.00       0.00       1.52       2.34       0.00       2.34        1.64    16.23   0.596
  JS06                       3.93       0.00       0.00       1.51       2.34       0.00       2.34        5.18    50.28   0.594
  JS07                       3.93       0.00       0.00       1.95       1.93       0.00       1.93        3.73    37.06   0.490
  JS08                       3.93       0.00       0.00       2.24       1.67       0.00       1.67        1.62    16.23   0.424
  JS09                       3.93       0.00       0.00       1.38       2.48       0.00       2.48        2.80    27.57   0.630
  JS10                       3.93       0.00       0.00       1.46       2.41       0.00       2.41        4.82    48.24   0.613
  JS11                       3.93       0.00       0.00       1.45       2.43       0.00       2.43        2.05    20.54   0.618
  JS12                       3.93       0.00       0.00       1.62       2.27       0.00       2.27        1.49    14.94   0.577
  JS13                       3.93       0.00       0.00       1.50       2.37       0.00       2.37        2.72    27.20   0.604
  JS14                       3.93       0.00       0.00       1.62       2.23       0.00       2.23        2.61    25.26   0.568
  JS15                       3.93       0.00       0.00       2.00       1.88       0.00       1.88        2.74    27.08   0.477
  JS16                       3.93       0.00       0.00       1.90       1.97       0.00       1.97        5.64    56.12   0.502
  JS17                       3.93       0.00       0.00       1.47       2.36       0.00       2.36        7.42    69.10   0.599
  JS18                       3.93       0.00       0.00       1.50       2.30       0.00       2.30        5.44    45.89   0.584
  JS19                       3.93       0.00       0.00       1.45       2.32       0.00       2.32        7.23    56.81   0.591
  JS20                       3.93       0.00       0.00       1.32       2.49       0.00       2.49        4.88    44.95   0.635
  JS21                       3.93       0.00       0.00       1.51       2.34       0.00       2.34        2.27    22.18   0.595
  JS22                       3.93       0.00       0.00       1.77       2.11       0.00       2.11        2.14    21.42   0.536
  JS23                       3.93       0.00       0.00       1.52       2.32       0.00       2.32        3.48    33.43   0.591
  JS24                       3.93       0.00       0.00       1.05       2.77       0.00       2.77        2.56    24.47   0.706
  JS25                       3.93       0.00       0.00       1.76       2.11       0.00       2.11        5.01    50.00   0.537
  NA01                       3.93       0.00       0.00       2.08       1.71       0.00       1.71        4.57    33.09   0.434
  NA02                       3.93       0.00       0.00       1.78       2.08       0.00       2.08       10.22    98.74   0.529
  NA03                       3.93       0.00       0.00       3.41       0.51       0.00       0.51        1.50    15.06   0.129
  NA04                       3.93       0.00       0.00       3.78       0.15       0.00       0.15        0.18     1.79   0.038
  NA05                       3.93       0.00       0.00       3.80       0.12       0.00       0.12        0.48     4.83   0.031
  NA06                       3.93       0.00       0.00       3.50       0.42       0.00       0.42        1.66    16.60   0.107
  NA07                       3.93       0.00       0.00       1.55       2.34       0.00       2.34        1.18    11.74   0.597
  NA08                       3.93       0.00       0.00       1.41       2.47       0.00       2.47        0.78     7.82   0.627
  NA09                       3.93       0.00       0.00       1.36       2.51       0.00       2.51        5.77    57.66   0.639
  NA10                       3.93       0.00       0.00       0.77       3.08       0.00       3.08        1.61    16.02   0.784
  NA11                       3.93       0.00       0.00       0.77       3.10       0.00       3.10        1.40    13.98   0.788
  NA12                       3.93       0.00       0.00       0.75       3.10       0.00       3.10        0.93     9.29   0.789
  NA13                       3.93       0.00       0.00       0.77       3.09       0.00       3.09        2.74    27.45   0.787
  NA14                       3.93       0.00       0.00       1.10       2.77       0.00       2.77        2.49    24.97   0.705
  NA15                       3.93       0.00       0.00       1.63       2.27       0.00       2.27        0.88     8.80   0.577
  NA16                       3.93       0.00       0.00       1.18       2.70       0.00       2.70        0.80     8.00   0.688
  NV01                       3.93       0.00       0.00       1.78       2.10       0.00       2.10        3.74    37.34   0.534
  NV02                       3.93       0.00       0.00       1.90       1.98       0.00       1.98        3.48    34.76   0.504
  NV03                       3.93       0.00       0.00       1.66       2.21       0.00       2.21        1.49    14.82   0.562
  NV04                       3.93       0.00       0.00       1.94       1.95       0.00       1.95        2.07    20.74   0.497
  NV05                       3.93       0.00       0.00       1.84       2.04       0.00       2.04        1.08    10.81   0.520
  NV06                       3.93       0.00       0.00       1.70       2.17       0.00       2.17        2.94    29.40   0.553
  NV07                       3.93       0.00       0.00       1.86       2.02       0.00       2.02        2.06    20.61   0.515
  NV08                       3.93       0.00       0.00       1.66       2.22       0.00       2.22        0.38     3.81   0.564
  OI01                       3.93       0.00       0.00       1.75       2.14       0.00       2.14        0.83     8.29   0.545
  OI02                       3.93       0.00       0.00       1.05       2.81       0.00       2.81        1.41    14.16   0.715
  OI03                       3.93       0.00       0.00       0.77       3.04       0.00       3.04        2.25    21.40   0.773
  OI04                       3.93       0.00       0.00       0.77       3.00       0.00       3.00        0.43     3.68   0.762
  OI05                       3.93       0.00       0.00       0.85       2.98       0.00       2.98        1.04    10.18   0.757
  OI06                       3.93       0.00       0.00       1.14       2.66       0.00       2.66        2.47    21.81   0.676
  OI07                       3.93       0.00       0.00       2.52       1.36       0.00       1.36        3.45    32.94   0.347
  OI08                       3.93       0.00       0.00       1.92       1.91       0.00       1.91        6.15    52.97   0.485
  OI09                       3.93       0.00       0.00       1.01       2.78       0.00       2.78        1.29    11.54   0.707
  OI10                       3.93       0.00       0.00       1.30       2.51       0.00       2.51        2.28    20.61   0.638
  OI11                       3.93       0.00       0.00       1.06       2.77       0.00       2.77        2.19    21.13   0.705
  OI12                       3.93       0.00       0.00       1.07       2.81       0.00       2.81        0.78     7.77   0.714
  OI13                       3.93       0.00       0.00       1.11       2.68       0.00       2.68        1.71    15.08   0.683
  OI14                       3.93       0.00       0.00       0.95       2.86       0.00       2.86        2.47    23.36   0.728
  OI15                       3.93       0.00       0.00       0.90       2.86       0.00       2.86        1.48    12.45   0.727
  OI16                       3.93       0.00       0.00       0.77       3.00       0.00       3.00        3.07    26.70   0.763
  OI17                       3.93       0.00       0.00       0.83       3.00       0.00       3.00        1.61    15.90   0.765
  OI18                       3.93       0.00       0.00       1.05       2.78       0.00       2.78        2.00    19.23   0.708
  OI19                       3.93       0.00       0.00       1.11       2.71       0.00       2.71        1.57    14.79   0.690
  OI20                       3.93       0.00       0.00       1.30       2.54       0.00       2.54        1.81    17.60   0.646
  OI21                       3.93       0.00       0.00       1.09       2.70       0.00       2.70        2.60    22.66   0.686
  OI22                       3.93       0.00       0.00       0.72       3.05       0.00       3.05        1.83    16.24   0.777
  OI23                       3.93       0.00       0.00       0.85       2.98       0.00       2.98        0.97     9.52   0.759
  OI24                       3.93       0.00       0.00       1.16       2.68       0.00       2.68        1.20    11.82   0.683
  OI25                       3.93       0.00       0.00       1.21       2.62       0.00       2.62        2.04    19.46   0.666
  OI26                       3.93       0.00       0.00       1.52       2.33       0.00       2.33        2.03    19.74   0.593
  OI27                       3.93       0.00       0.00       1.17       2.65       0.00       2.65        3.07    28.90   0.674
  OI28                       3.93       0.00       0.00       2.24       1.64       0.00       1.64        3.42    33.22   0.416
  OI29                       3.93       0.00       0.00       1.23       2.58       0.00       2.58        3.06    27.69   0.657
  OI30                       3.93       0.00       0.00       1.06       2.77       0.00       2.77        1.75    17.10   0.706
  OI31                       3.93       0.00       0.00       1.54       2.30       0.00       2.30        0.63     5.93   0.586
  OI32                       3.93       0.00       0.00       1.58       2.30       0.00       2.30        2.12    21.29   0.586
  OI33                       3.93       0.00       0.00       0.77       3.01       0.00       3.01        1.56    13.73   0.766
  OI34                       3.93       0.00       0.00       0.77       3.03       0.00       3.03        0.98     9.03   0.770
  OI35                       3.93       0.00       0.00       1.66       2.19       0.00       2.19        1.21    11.64   0.557
  OI36                       3.93       0.00       0.00       1.81       2.05       0.00       2.05        0.74     7.21   0.521
  OI37                       3.93       0.00       0.00       1.95       1.93       0.00       1.93        1.53    15.30   0.491
  OI38                       3.93       0.00       0.00       1.84       2.03       0.00       2.03        3.15    31.26   0.518
  OI39                       3.93       0.00       0.00       1.54       2.34       0.00       2.34        1.45    14.51   0.595
  OI40                       3.93       0.00       0.00       2.38       1.52       0.00       1.52        1.92    19.23   0.387
  OI41                       3.93       0.00       0.00       1.47       2.41       0.00       2.41        0.94     9.37   0.612
  OI42                       3.93       0.00       0.00       1.61       2.25       0.00       2.25        2.45    24.38   0.573
  OI43                       3.93       0.00       0.00       2.11       1.78       0.00       1.78        0.86     8.65   0.453
  OI44                       3.93       0.00       0.00       2.55       1.34       0.00       1.34        2.81    27.83   0.340
  OI45                       3.93       0.00       0.00       1.61       2.25       0.00       2.25        3.15    31.06   0.573
  OI46                       3.93       0.00       0.00       2.17       1.72       0.00       1.72        4.42    44.29   0.439
  OI47                       3.93       0.00       0.00       2.07       1.82       0.00       1.82        1.59    15.92   0.464
  OI48                       3.93       0.00       0.00       1.65       2.22       0.00       2.22        1.06    10.54   0.565
  OI49                       3.93       0.00       0.00       1.79       2.08       0.00       2.08        2.48    24.56   0.528
  OI50                       3.93       0.00       0.00       1.61       2.26       0.00       2.26        1.09    10.94   0.576
  OI51                       3.93       0.00       0.00       1.40       2.45       0.00       2.45        0.48     4.75   0.623
  OI52                       3.93       0.00       0.00       1.53       2.34       0.00       2.34        2.63    26.20   0.595
  OI53                       3.93       0.00       0.00       1.65       2.19       0.00       2.19        1.56    15.04   0.558
  OI54                       3.93       0.00       0.00       1.45       2.40       0.00       2.40        1.55    15.19   0.612
  OI55                       3.93       0.00       0.00       1.66       2.21       0.00       2.21        1.47    14.70   0.563
  OI56                       3.93       0.00       0.00       1.93       1.95       0.00       1.95        3.45    34.22   0.495
  OI57                       3.93       0.00       0.00       1.72       2.17       0.00       2.17        5.46    54.64   0.551
  OI58                       3.93       0.00       0.00       1.56       2.31       0.00       2.31        1.99    19.76   0.587
  OI59                       3.93       0.00       0.00       1.63       2.25       0.00       2.25        1.88    18.81   0.572
  OI60                       3.93       0.00       0.00       2.06       1.82       0.00       1.82        3.59    35.42   0.463
  OI61                       3.93       0.00       0.00       1.60       2.28       0.00       2.28        1.43    14.29   0.581
  OI62                       3.93       0.00       0.00       1.68       2.14       0.00       2.14        3.89    34.65   0.545
  OI63                       3.93       0.00       0.00       1.30       2.48       0.00       2.48        1.90    15.89   0.631
  OI64                       3.93       0.00       0.00       2.13       1.75       0.00       1.75        0.79     7.87   0.446
  OI65                       3.93       0.00       0.00       1.35       2.50       0.00       2.50        1.95    19.01   0.636
  OI66                       3.93       0.00       0.00       1.22       2.64       0.00       2.64        0.85     8.50   0.672
  OI67                       3.93       0.00       0.00       1.14       2.73       0.00       2.73        2.66    26.63   0.694
  OI68                       3.93       0.00       0.00       1.01       2.83       0.00       2.83        4.20    40.95   0.720
  OI69                       3.93       0.00       0.00       1.36       2.48       0.00       2.48        4.66    44.30   0.630
  OI70                       3.93       0.00       0.00       1.05       2.81       0.00       2.81        2.74    27.34   0.715
  OI71                       3.93       0.00       0.00       1.30       2.52       0.00       2.52        4.17    39.11   0.641
  OI72                       3.93       0.00       0.00       1.14       2.72       0.00       2.72        3.07    30.61   0.691
  OI73                       3.93       0.00       0.00       1.30       2.55       0.00       2.55        2.66    26.30   0.648
  OI74                       3.93       0.00       0.00       0.77       3.03       0.00       3.03        2.39    21.84   0.770
  OI75                       3.93       0.00       0.00       0.94       2.91       0.00       2.91        3.84    37.93   0.739
  OW01                       3.93       0.00       0.00       1.36       2.49       0.00       2.49        3.46    33.97   0.632
  OW02                       3.93       0.00       0.00       1.52       2.33       0.00       2.33        2.61    25.56   0.592
  OW03                       3.93       0.00       0.00       1.56       2.29       0.00       2.29        2.41    23.53   0.582
  OW04                       3.93       0.00       0.00       1.65       2.20       0.00       2.20        3.48    33.66   0.560
  OW05                       3.93       0.00       0.00       1.95       1.92       0.00       1.92        3.72    36.55   0.489
  OW06                       3.93       0.00       0.00       1.72       2.13       0.00       2.13        6.32    59.73   0.541
  OW07                       3.93       0.00       0.00       1.53       2.32       0.00       2.32        2.36    23.05   0.591
  RR01                       3.93       0.00       0.00       1.64       2.13       0.00       2.13        4.54    35.15   0.543
  RR02                       3.93       0.00       0.00       1.74       2.09       0.00       2.09        4.57    40.45   0.531
  RR03                       3.93       0.00       0.00       1.38       2.47       0.00       2.47        2.11    20.77   0.629
  RR04                       3.93       0.00       0.00       1.66       2.08       0.00       2.08        2.18    15.04   0.530
  RR05                       3.93       0.00       0.00       1.89       1.99       0.00       1.99        0.76     7.58   0.506
  RR06                       3.93       0.00       0.00       1.31       2.54       0.00       2.54        1.39    13.63   0.646
  RR07                       3.93       0.00       0.00       1.30       2.54       0.00       2.54        1.53    14.84   0.645
  RR08                       3.93       0.00       0.00       1.40       2.47       0.00       2.47        2.18    21.71   0.627
  RR09                       3.93       0.00       0.00       1.30       2.56       0.00       2.56        1.27    12.70   0.652
  RR10                       3.93       0.00       0.00       1.30       2.41       0.00       2.41        9.28    65.15   0.614
  RR11                       3.93       0.00       0.00       1.30       2.30       0.00       2.30        1.31     7.16   0.586
  RR12                       3.93       0.00       0.00       1.30       2.56       0.00       2.56        2.80    27.97   0.651
  RR13                       3.93       0.00       0.00       1.29       2.58       0.00       2.58        3.52    35.25   0.656
  RR14                       3.93       0.00       0.00       1.26       2.58       0.00       2.58        5.31    51.53   0.657
  RR15                       3.93       0.00       0.00       3.20       0.72       0.00       0.72        1.80    17.99   0.183
  RR16                       3.93       0.00       0.00       1.53       2.32       0.00       2.32        1.27    12.35   0.590
  RR17                       3.93       0.00       0.00       1.46       2.37       0.00       2.37        2.17    20.50   0.604
  RR18                       3.93       0.00       0.00       2.16       1.71       0.00       1.71        2.11    20.05   0.434
  RR19                       3.93       0.00       0.00       1.57       2.32       0.00       2.32        3.53    35.35   0.589
  RR20                       3.93       0.00       0.00       1.24       2.63       0.00       2.63        4.75    47.55   0.670
  RR21                       3.93       0.00       0.00       1.34       2.54       0.00       2.54        0.58     5.80   0.647
  RR22                       3.93       0.00       0.00       1.24       2.62       0.00       2.62        1.45    14.43   0.667
  RR23                       3.93       0.00       0.00       1.61       2.25       0.00       2.25        2.73    26.82   0.572
  RR24                       3.93       0.00       0.00       2.22       1.66       0.00       1.66        3.17    30.98   0.422
  RR25                       3.93       0.00       0.00       1.66       2.23       0.00       2.23        1.55    15.49   0.568
  RR26                       3.93       0.00       0.00       1.27       2.61       0.00       2.61        1.04    10.43   0.665
  RR27                       3.93       0.00       0.00       1.64       2.23       0.00       2.23        3.28    32.81   0.567
  RR28                       3.93       0.00       0.00       3.71       0.22       0.00       0.22        0.40     3.95   0.055
  RR29                       3.93       0.00       0.00       1.27       2.62       0.00       2.62        3.79    37.83   0.666
  RR30                       3.93       0.00       0.00       1.40       2.46       0.00       2.46        1.29    12.87   0.626
  RR31                       3.93       0.00       0.00       1.67       2.19       0.00       2.19        2.78    27.22   0.558
  RR32                       3.93       0.00       0.00       1.58       2.29       0.00       2.29        2.15    21.45   0.584
  RR33                       3.93       0.00       0.00       3.78       0.14       0.00       0.14        0.27     2.68   0.036
  RR34                       3.93       0.00       0.00       1.67       2.21       0.00       2.21        2.09    20.91   0.562
  RR35                       3.93       0.00       0.00       1.73       2.13       0.00       2.13        1.08    10.59   0.543
  RR36                       3.93       0.00       0.00       1.76       2.11       0.00       2.11        2.70    26.92   0.536
  RR37                       3.93       0.00       0.00       0.77       3.00       0.00       3.00        2.41    20.82   0.763
  RR38                       3.93       0.00       0.00       0.77       3.05       0.00       3.05        1.33    12.87   0.777
  RR39                       3.93       0.00       0.00       0.77       3.11       0.00       3.11        2.35    23.55   0.790
  RR40                       3.93       0.00       0.00       3.62       0.31       0.00       0.31        1.36    13.60   0.078
  RR41                       3.93       0.00       0.00       1.74       2.11       0.00       2.11        1.47    14.28   0.537
  RR42                       3.93       0.00       0.00       1.29       2.56       0.00       2.56        2.10    20.36   0.650
  RR43                       3.93       0.00       0.00       1.64       2.26       0.00       2.26        2.01    20.01   0.574
  RR44                       3.93       0.00       0.00       0.86       2.99       0.00       2.99        1.90    19.01   0.760
  RR45                       3.93       0.00       0.00       0.77       3.07       0.00       3.07        2.50    24.70   0.781
  RR46                       3.93       0.00       0.00       0.97       2.87       0.00       2.87        1.36    13.47   0.731
  RR47                       3.93       0.00       0.00       0.77       3.09       0.00       3.09        3.26    32.67   0.786
  RR48                       3.93       0.00       0.00       0.79       3.05       0.00       3.05        5.52    54.87   0.777
  RR49                       3.93       0.00       0.00       0.78       3.06       0.00       3.06        5.71    56.50   0.779
  RR50                       3.93       0.00       0.00       2.71       1.19       0.00       1.19        4.38    43.87   0.303
  RR51                       3.93       0.00       0.00       1.66       2.07       0.00       2.07        6.13    40.55   0.526
  RR52                       3.93       0.00       0.00       3.67       0.25       0.00       0.25        1.07     9.81   0.063
  RR53                       3.93       0.00       0.00       1.84       2.05       0.00       2.05        1.40    14.04   0.521
  RR54                       3.93       0.00       0.00       3.78       0.15       0.00       0.15        0.64     6.41   0.038
  RR55                       3.93       0.00       0.00       3.77       0.16       0.00       0.16        0.70     6.97   0.040
  RR56                       3.93       0.00       0.00       1.66       2.23       0.00       2.23        2.30    22.98   0.569
  RR57                       3.93       0.00       0.00       1.30       2.56       0.00       2.56        4.56    45.65   0.652
  RR58                       3.93       0.00       0.00       1.78       2.10       0.00       2.10        3.46    34.71   0.536
  RR59                       3.93       0.00       0.00       1.66       2.22       0.00       2.22        1.89    18.87   0.564
  RR60                       3.93       0.00       0.00       2.58       1.32       0.00       1.32        2.22    22.19   0.335
  RR61                       3.93       0.00       0.00       1.76       2.11       0.00       2.11        3.63    35.92   0.536
  RR62                       3.93       0.00       0.00       1.58       2.31       0.00       2.31        2.00    20.03   0.588
  RR63                       3.93       0.00       0.00       1.53       2.34       0.00       2.34        2.62    26.23   0.597
  RR64                       3.93       0.00       0.00       1.97       1.92       0.00       1.92        3.72    37.31   0.488
  RR65                       3.93       0.00       0.00       1.50       2.37       0.00       2.37        2.28    22.77   0.602
  RR66                       3.93       0.00       0.00       1.33       2.53       0.00       2.53        7.20    71.50   0.643
  RR67                       3.93       0.00       0.00       1.64       2.05       0.00       2.05        4.47    26.87   0.521
  VR01                       3.93       0.00       0.00       0.77       3.00       0.00       3.00        1.79    15.55   0.764
  VR02                       3.93       0.00       0.00       1.15       2.67       0.00       2.67        2.65    24.96   0.679
  VR03                       3.93       0.00       0.00       1.63       2.19       0.00       2.19        1.98    17.78   0.557
  VR04                       3.93       0.00       0.00       1.91       1.94       0.00       1.94        3.46    33.09   0.494
  VR05                       3.93       0.00       0.00       1.60       2.23       0.00       2.23        2.41    22.13   0.567
  VR06                       3.93       0.00       0.00       0.79       3.03       0.00       3.03        2.38    22.85   0.770
  VR07                       3.93       0.00       0.00       1.63       2.24       0.00       2.24        2.09    20.81   0.569
  VR08                       3.93       0.00       0.00       1.66       2.20       0.00       2.20        3.72    37.00   0.561
  VR09                       3.93       0.00       0.00       0.81       3.00       0.00       3.00        0.93     8.85   0.764
  VR10                       3.93       0.00       0.00       2.00       1.86       0.00       1.86        0.73     7.03   0.472
  VR11                       3.93       0.00       0.00       1.01       2.84       0.00       2.84        0.67     6.69   0.723
  VR12                       3.93       0.00       0.00       0.79       3.01       0.00       3.01        1.00     9.35   0.765
  VR13                       3.93       0.00       0.00       0.77       3.02       0.00       3.02        1.60    14.59   0.769
  VR14                       3.93       0.00       0.00       0.77       2.96       0.00       2.96        2.64    21.36   0.754
  VR15                       3.93       0.00       0.00       1.51       2.31       0.00       2.31        1.30    11.84   0.588
  VR16                       3.93       0.00       0.00       1.60       2.25       0.00       2.25        2.32    22.25   0.573
  VR17                       3.93       0.00       0.00       2.01       1.84       0.00       1.84        5.04    47.02   0.469
  VR18                       3.93       0.00       0.00       0.77       2.95       0.00       2.95        0.90     6.97   0.752
  VR19                       3.93       0.00       0.00       1.56       2.27       0.00       2.27        2.71    24.78   0.576
  VR20                       3.93       0.00       0.00       1.67       2.18       0.00       2.18        2.40    23.00   0.555
  VR21                       3.93       0.00       0.00       1.58       2.27       0.00       2.27        4.48    43.48   0.577
  VR22                       3.93       0.00       0.00       1.66       2.20       0.00       2.20        1.54    15.09   0.559
  VR23                       3.93       0.00       0.00       1.16       2.65       0.00       2.65        3.91    35.62   0.675
  VR24                       3.93       0.00       0.00       1.02       2.80       0.00       2.80        0.73     7.02   0.713
  VR25                       3.93       0.00       0.00       1.24       2.56       0.00       2.56        1.00     8.74   0.650
  VR26                       3.93       0.00       0.00       1.41       2.41       0.00       2.41        3.56    32.43   0.614
  VR27                       3.93       0.00       0.00       0.93       2.86       0.00       2.86        0.55     4.98   0.729
  VR28                       3.93       0.00       0.00       1.49       2.33       0.00       2.33        5.24    47.52   0.593
  VR29                       3.93       0.00       0.00       1.05       2.76       0.00       2.76        2.24    20.93   0.703
  VR30                       3.93       0.00       0.00       1.84       2.00       0.00       2.00        4.20    38.72   0.508
  VR31                       3.93       0.00       0.00       1.87       1.97       0.00       1.97        0.72     6.65   0.501
  VR32                       3.93       0.00       0.00       1.75       2.08       0.00       2.08        6.16    55.69   0.529
  VR33                       3.93       0.00       0.00       1.61       2.22       0.00       2.22        1.66    15.27   0.566
  VR34                       3.93       0.00       0.00       1.26       2.54       0.00       2.54        2.53    22.43   0.646
  VR35                       3.93       0.00       0.00       1.26       2.54       0.00       2.54        5.38    47.56   0.646
  VR36                       3.93       0.00       0.00       1.55       2.27       0.00       2.27        4.31    38.96   0.578
  VR37                       3.93       0.00       0.00       1.45       2.36       0.00       2.36        2.61    23.20   0.601
  VR38                       3.93       0.00       0.00       1.58       2.28       0.00       2.28        2.10    20.92   0.581
  VR39                       3.93       0.00       0.00       1.85       2.02       0.00       2.02        2.12    21.21   0.515
  VR40                       3.93       0.00       0.00       1.66       2.18       0.00       2.18        0.74     6.93   0.555
  VR41                       3.93       0.00       0.00       1.54       2.30       0.00       2.30        2.44    23.42   0.586
  VR42                       3.93       0.00       0.00       1.64       2.19       0.00       2.19        1.41    12.65   0.556
  VR43                       3.93       0.00       0.00       1.64       2.22       0.00       2.22        1.22    11.98   0.564
  VR44                       3.93       0.00       0.00       0.77       3.05       0.00       3.05        2.14    20.63   0.776
  WF01                       3.93       0.00       0.00       0.97       2.81       0.00       2.81        2.45    21.54   0.715
  WF02                       3.93       0.00       0.00       1.71       2.12       0.00       2.12        4.01    36.10   0.540
  WF03                       3.93       0.00       0.00       0.99       2.80       0.00       2.80        1.62    14.58   0.713
  WF04                       3.93       0.00       0.00       0.78       3.06       0.00       3.06        1.52    15.02   0.778
  WF05                       3.93       0.00       0.00       0.77       3.04       0.00       3.04        1.71    16.21   0.773
  WF06                       3.93       0.00       0.00       2.24       1.64       0.00       1.64        2.33    22.92   0.418
  WF07                       3.93       0.00       0.00       3.38       0.54       0.00       0.54        1.11    11.15   0.137
  WF08                       3.93       0.00       0.00       1.43       2.39       0.00       2.39        9.42    84.98   0.608
  WF09                       3.93       0.00       0.00       1.62       2.17       0.00       2.17        3.74    29.58   0.551
  WF10                       3.93       0.00       0.00       1.53       2.27       0.00       2.27        3.82    31.84   0.576
  WF11                       3.93       0.00       0.00       2.48       1.39       0.00       1.39        2.12    20.06   0.354
  WF12                       3.93       0.00       0.00       3.77       0.16       0.00       0.16        0.79     7.90   0.040
  WR13                       3.93       0.00       0.00       1.74       2.07       0.00       2.07        7.41    63.00   0.528
  WR14                       3.93       0.00       0.00       1.66       2.15       0.00       2.15        2.30    19.81   0.548
  WR15                       3.93       0.00       0.00       1.60       2.27       0.00       2.27        1.36    13.57   0.579
  WR16                       3.93       0.00       0.00       1.66       2.21       0.00       2.21        1.48    14.77   0.563
  WR17                       3.93       0.00       0.00       1.66       2.20       0.00       2.20        2.59    25.58   0.561
  WR18                       3.93       0.00       0.00       2.39       1.50       0.00       1.50        1.68    16.78   0.383
  WR19                       3.93       0.00       0.00       2.38       1.52       0.00       1.52        1.52    15.17   0.386
  WR20                       3.93       0.00       0.00       2.59       1.31       0.00       1.31        0.47     4.69   0.334
  WR21                       3.93       0.00       0.00       1.63       2.25       0.00       2.25        1.45    14.49   0.571
  WR22                       3.93       0.00       0.00       1.68       2.17       0.00       2.17        0.82     7.88   0.551
  WR23                       3.93       0.00       0.00       1.59       2.23       0.00       2.23        1.72    15.13   0.567
  WR24                       3.93       0.00       0.00       1.80       2.07       0.00       2.07        3.96    39.45   0.528
  WR25                       3.93       0.00       0.00       1.62       2.17       0.00       2.17        3.41    28.08   0.553
  WV01                       3.93       0.00       0.00       2.21       1.63       0.00       1.63        9.84    84.50   0.415
  WV02                       3.93       0.00       0.00       3.42       0.51       0.00       0.51        0.59     5.85   0.129
  WV03                       3.93       0.00       0.00       1.59       2.25       0.00       2.25        3.87    36.36   0.571
  WV04                       3.93       0.00       0.00       1.66       2.20       0.00       2.20        0.64     6.31   0.560
  WV05                       3.93       0.00       0.00       1.66       2.16       0.00       2.16        0.97     8.62   0.551
  WV06                       3.93       0.00       0.00       1.79       2.06       0.00       2.06        0.99     9.47   0.524
  WV07                       3.93       0.00       0.00       1.74       2.15       0.00       2.15        2.83    28.35   0.546
  WV08                       3.93       0.00       0.00       1.73       2.17       0.00       2.17        2.31    23.11   0.551
  WV09                       3.93       0.00       0.00       1.95       1.96       0.00       1.96        0.89     8.82   0.498
  WV10                       3.93       0.00       0.00       3.22       0.70       0.00       0.70        0.73     7.26   0.178
  WV11                       3.93       0.00       0.00       3.36       0.56       0.00       0.56        0.68     6.82   0.142
  WV12                       3.93       0.00       0.00       3.24       0.66       0.00       0.66        0.64     6.11   0.169
  WV13                       3.93       0.00       0.00       3.28       0.64       0.00       0.64        1.51    15.14   0.162
  WV14                       3.93       0.00       0.00       1.73       2.15       0.00       2.15        1.30    13.00   0.547
  WV15                       3.93       0.00       0.00       1.68       2.21       0.00       2.21        0.81     8.14   0.562
  WV16                       3.93       0.00       0.00       1.66       2.22       0.00       2.22        1.11    11.15   0.565
  WV17                       3.93       0.00       0.00       3.11       0.80       0.00       0.80        2.36    23.63   0.203
  WV18                       3.93       0.00       0.00       1.70       2.20       0.00       2.20        0.45     4.47   0.559
  WV19                       3.93       0.00       0.00       1.38       2.47       0.00       2.47        1.47    14.55   0.630
  WV20                       3.93       0.00       0.00       1.40       2.47       0.00       2.47        0.55     5.45   0.628
  WV21                       3.93       0.00       0.00       1.66       2.20       0.00       2.20        1.08    10.65   0.561
  WV22                       3.93       0.00       0.00       1.66       2.22       0.00       2.22        1.01    10.12   0.566
  WV23                       3.93       0.00       0.00       1.78       2.11       0.00       2.11        0.82     8.18   0.537
  WV24                       3.93       0.00       0.00       3.13       0.79       0.00       0.79        0.98     9.79   0.200
  WW01                       3.93       0.00       0.00       3.77       0.16       0.00       0.16        0.30     2.96   0.040
  WW02                       3.93       0.00       0.00       3.77       0.16       0.00       0.16        0.39     3.86   0.040
  WW03                       3.93       0.00       0.00       3.74       0.19       0.00       0.19        0.43     4.27   0.048
  WW04                       3.93       0.00       0.00       1.74       2.11       0.00       2.11        5.73    54.62   0.537
  WW05                       3.93       0.00       0.00       1.93       1.94       0.00       1.94        1.20    11.76   0.494
  WW06                       3.93       0.00       0.00       1.70       2.15       0.00       2.15        1.03     9.91   0.547
  WW07                       3.93       0.00       0.00       1.58       2.29       0.00       2.29        1.37    13.72   0.583
  WW08                       3.93       0.00       0.00       1.89       1.96       0.00       1.96        2.94    28.26   0.499
  WW09                       3.93       0.00       0.00       1.27       2.55       0.00       2.55        1.56    14.61   0.649
  
  
  ******************
  Node Depth Summary
  ******************
  
  ---------------------------------------------------------------------------------
                                 Average  Maximum  Maximum  Time of Max    Reported
                                   Depth    Depth      HGL   Occurrence   Max Depth
  Node                 Type         Feet     Feet     Feet  days hr:min        Feet
  ---------------------------------------------------------------------------------
  CB-F28-300           JUNCTION     0.14     1.18     2.28     0  10:00        1.18
  CB-F28-301           JUNCTION     2.10     3.23     2.31     0  09:57        3.22
  CB-H23-306           JUNCTION     1.47     3.06    14.71     0  10:02        3.05
  CB-H24-311           JUNCTION     0.78     4.15    14.21     0  09:42        3.86
  CB-H25-301           JUNCTION     1.06     4.94    12.99     0  09:42        4.68
  CB-H25-304           JUNCTION     1.21     5.03    12.77     0  09:42        4.78
  CB-H26-305           JUNCTION     0.12     0.64     3.34     0  10:00        0.64
  CB-H26-306           JUNCTION     2.98     5.59     3.99     0  10:00        5.59
  CB-H26-309           JUNCTION     0.56     1.56     7.51     0  10:00        1.55
  CB-H26-310           JUNCTION     0.75     1.72     7.92     0  10:00        1.72
  CB-H31-300           JUNCTION     8.95    33.21    29.71     0  10:00       33.21
  CB-H31-301           JUNCTION     8.75    30.62    26.87     0  10:00       30.58
  CB-I15-306           JUNCTION     2.59     5.38    47.70     0  09:59        5.37
  CB-I15-307           JUNCTION     2.60     5.09    47.34     0  09:59        5.06
  CB-I22-312           JUNCTION     1.60     3.48    22.43     0  10:03        3.43
  CB-I22-313           JUNCTION     1.51     3.41    22.76     0  10:04        3.40
  CB-I22-314           JUNCTION     1.56     3.83    23.43     0  09:58        3.74
  CB-J15-308           JUNCTION     2.45     6.94    49.71     0  09:59        6.92
  CB-J16-306           JUNCTION     1.88     4.57    49.17     0  09:50        4.01
  CB-K14-320           JUNCTION     0.65     1.81    50.61     0  10:00        1.81
  CB-K14-325           JUNCTION     1.21     1.80    50.65     0  09:59        1.80
  CB-K15-301           JUNCTION     0.27     0.90    50.70     0  10:00        0.90
  CB-K15-304           JUNCTION     0.42     0.90    51.56     0  10:00        0.90
  CB-K15-313           JUNCTION     0.40     1.46    54.41     0  09:50        1.05
  CB-K16-300           JUNCTION     0.98     6.38    54.72     0  09:50        4.95
  CB-K16-308           JUNCTION     1.19     2.63    51.69     0  10:00        2.63
  CB-K17-300           JUNCTION     1.14     2.51    50.65     0  10:00        2.50
  CB-K24-306           JUNCTION     0.91     2.21    14.80     0  10:31        2.21
  CB-M27-300           JUNCTION     1.39     3.56    24.45     0  09:53        3.40
  CB-M27-301           JUNCTION     1.42    10.07    31.18     0  09:57        3.83
  CB-N14-307           JUNCTION     3.03     5.62    68.83     0  10:01        5.62
  CB-N21-325           JUNCTION     3.83     4.58    48.51     0  10:02        4.58
  CB-N24-312           JUNCTION     0.44     4.23    37.22     0  10:01        3.45
  CB-N27-300           JUNCTION     1.46     8.52    30.09     0  09:38        4.02
  CB-N27-302           JUNCTION     1.43    10.24    31.57     0  09:57        3.97
  CB-O13-315           JUNCTION     0.45     0.94    79.45     0  10:00        0.94
  CB-O15-301           JUNCTION     2.55     7.03    71.87     0  10:02        6.99
  CB-O15-303           JUNCTION     1.83     5.76    72.13     0  10:02        5.68
  CB-O15-304           JUNCTION     1.71     5.33    72.20     0  10:02        5.25
  CB-O15-305           JUNCTION     1.85     6.09    72.04     0  10:02        6.03
  CB-O15-306           JUNCTION     1.52     3.82    72.50     0  10:02        3.76
  CB-O17-301           JUNCTION     0.97     3.31    70.43     0  10:02        3.28
  CB-O22-311           JUNCTION     1.13     2.75    41.68     0  10:05        2.75
  CB-O24-303           JUNCTION     0.37     2.56    41.88     0  09:55        2.15
  CB-O24-305           JUNCTION     1.32     7.63    40.43     0  10:01        6.29
  CB-O24-307           JUNCTION     0.52     5.75    39.45     0  10:01        4.57
  CB-O24-317           JUNCTION     2.36    11.32    43.74     0  09:59       11.31
  CB-O24-324           JUNCTION     2.49    10.80    42.27     0  10:00       10.78
  CB-O24-329           JUNCTION     1.65     5.48    37.95     0  09:59        5.45
  CB-O25-305           JUNCTION     3.32     9.88    39.65     0  10:00        9.87
  CB-P14-305           JUNCTION     1.13     2.81    72.76     0  10:00        2.81
  CB-P23-316           JUNCTION     1.85    15.25    52.58     0  09:46       10.16
  CB-P25-304           JUNCTION     2.10     6.39    37.79     0  10:04        6.36
  CB-P25-306           JUNCTION     2.20     6.50    37.78     0  10:04        6.46
  CB-P25-322           JUNCTION     1.68     5.46    37.21     0  10:04        5.46
  CB-P32-308           JUNCTION     0.72     1.75    14.90     0  10:00        1.75
  CB-P33-305           JUNCTION     0.71     1.73    13.89     0  10:00        1.73
  CB-P37-301           JUNCTION     5.15    13.49    10.16     0  10:00        9.42
  CB-Q20-309           JUNCTION     1.89     5.94    59.27     0  10:03        5.85
  CB-Q23-300           JUNCTION     1.10    52.13    94.43     0  09:46        8.11
  CB-Q25-301           JUNCTION     1.27     2.86    40.21     0  10:00        2.86
  CB-Q25-302           JUNCTION     1.28     2.88    40.16     0  10:00        2.88
  CB-Q28-308           JUNCTION     1.06     4.73    32.51     0  10:02        4.65
  CB-Q32-302           JUNCTION     2.09     5.78    17.76     0  10:21        5.73
  CB-R21-300           JUNCTION     1.57     3.90    49.90     0  10:05        3.86
  CB-R21-301           JUNCTION     1.21     3.18    49.07     0  10:03        3.15
  CB-R22-312           JUNCTION     0.59     2.35    47.11     0  10:02        2.32
  CB-R22-313           JUNCTION     0.76     2.55    47.13     0  10:03        2.48
  CB-R22-314           JUNCTION     0.93     2.71    47.12     0  10:03        2.66
  CB-S21-305           JUNCTION     0.82     2.19    50.23     0  10:03        2.15
  CB-S21-307           JUNCTION     1.22     3.42    50.18     0  10:04        3.37
  CB-S21-323           JUNCTION     2.05     4.68    50.06     0  10:03        4.66
  CB-S21-326           JUNCTION     2.10     4.73    50.06     0  10:03        4.71
  CB-S22-306           JUNCTION     3.55     5.77    46.65     0  10:05        5.70
  CB-S22-307           JUNCTION     2.32     5.24    47.86     0  10:03        5.20
  CB-S22-308           JUNCTION     2.31     5.31    48.23     0  10:00        5.26
  CB-S22-309           JUNCTION     2.22     5.23    48.49     0  10:01        5.17
  CB-S22-310           JUNCTION     2.19     5.16    48.74     0  10:01        5.08
  CB-S22-311           JUNCTION     2.03     4.68    49.23     0  10:02        4.66
  CB-S32-305           JUNCTION     0.36     1.50    17.35     0  10:05        1.50
  CO-O21-1250          JUNCTION     2.90    17.75    59.47     0  09:56       12.19
  CR-F22-801           JUNCTION     1.03     2.28    10.72     0  10:09        2.28
  CR-G22-800           JUNCTION     0.96     2.04    15.76     0  10:07        2.04
  CR-H22-803           JUNCTION     3.61     6.15    19.11     0  10:05        5.90
  CR-H26-801           JUNCTION     3.37     3.50     1.12     0  09:06        3.48
  CR-H26-807           JUNCTION     3.23     3.30     1.05     0  09:09        3.28
  CR-I15-806           JUNCTION     1.76     3.87    46.09     0  10:00        3.87
  CR-I22-800           JUNCTION     1.47     2.99    20.87     0  10:07        2.88
  CR-I26-805           JUNCTION     1.05     2.63    11.76     0  10:00        2.55
  CR-J15-803           JUNCTION     1.52     6.84    52.84     0  09:50        4.61
  CR-J17-802           JUNCTION     0.57     1.25    37.45     0  10:00        1.25
  CR-J24-801           JUNCTION     0.34     0.69    20.73     0  10:00        0.69
  CR-J24-803           JUNCTION     1.46     4.30    14.60     0  10:28        4.28
  CR-J25-805           JUNCTION     1.81     4.91    14.49     0  10:30        4.91
  CR-K15-800           JUNCTION     0.43     0.88    51.28     0  10:00        0.88
  CR-K15-801           JUNCTION     0.43     0.88    51.28     0  10:00        0.88
  CR-K15-802           JUNCTION     0.60     4.26    55.23     0  09:50        3.32
  CR-K17-800           JUNCTION     1.29     2.69    51.56     0  10:00        2.69
  CR-K18-801           JUNCTION     0.87     2.02    34.17     0  09:58        1.96
  CR-L17-801           JUNCTION     2.19    17.70    67.33     0  09:58       15.18
  CR-L17-802           JUNCTION     2.03    17.66    67.89     0  09:58       15.05
  CR-L23-811           JUNCTION     1.01     4.08    34.61     0  10:02        3.59
  CR-M17-800           JUNCTION     1.80    19.11    72.81     0  09:56       14.61
  CR-M17-801           JUNCTION     1.80    18.80    72.36     0  09:56       14.54
  CR-N10-801           JUNCTION     0.97     2.44    70.54     0  10:02        2.42
  CR-N10-802           JUNCTION     0.94     2.23    70.68     0  10:02        2.22
  CR-N10-803           JUNCTION     1.29     3.82    70.32     0  10:03        3.80
  CR-N11-800           JUNCTION     0.05     0.53    67.83     0  10:03        0.52
  CR-N11-801           JUNCTION     0.20     1.60    67.40     0  10:02        1.57
  CR-N13-800           JUNCTION     2.03     4.22    66.04     0  10:03        4.21
  CR-N14-806           JUNCTION     2.12     4.60    68.69     0  10:03        4.59
  CR-O15-801           JUNCTION     2.18     6.69    71.93     0  10:02        6.64
  CR-O17-801           JUNCTION     0.90     3.16    70.45     0  10:02        3.14
  CR-O17-802           JUNCTION     0.62     2.07    70.53     0  10:03        2.05
  CR-O17-805           JUNCTION     0.64     2.03    70.54     0  10:03        2.03
  CR-O17-806           JUNCTION     0.66     1.92    70.62     0  10:04        1.92
  CR-O34-802           JUNCTION     8.35    10.83    10.03     0  10:25       10.81
  CR-O34-805           JUNCTION     0.53     2.56    10.01     0  10:22        2.55
  CR-O34-806           JUNCTION     0.54     2.60    10.01     0  10:24        2.59
  CR-O34-807           JUNCTION     3.17     5.77    10.03     0  10:25        5.75
  CR-P14-801           JUNCTION     0.76     1.57    79.97     0  10:00        1.57
  CR-P16-800           JUNCTION     0.63     1.32    74.62     0  10:01        1.32
  CR-P18-800           JUNCTION     0.60     2.77    59.09     0  10:05        2.73
  CR-P18-803           JUNCTION     1.40     4.68    58.41     0  10:04        4.65
  CR-R20-812           JUNCTION     1.58     4.06    54.26     0  10:01        3.88
  CR-R23-801           JUNCTION     2.29     5.46    43.91     0  10:06        5.43
  CR-R27-800           JUNCTION     1.64     5.13    35.46     0  10:00        4.86
  CR-R28-803           JUNCTION     2.38     6.32    32.60     0  10:03        6.14
  CR-S17-802           JUNCTION     1.10     2.52    68.29     0  10:01        2.48
  CR-S17-807           JUNCTION     1.69     6.01    67.21     0  10:00        5.87
  CR-S21-802           JUNCTION     0.84     2.31    50.35     0  10:03        2.26
  CR-V18-800           JUNCTION     5.50    59.80   110.00     0  09:59        8.01
  CR-V18-801           JUNCTION     2.36    20.91    73.66     0  10:03        4.23
  CR-V18-802           JUNCTION     2.19     4.39    56.92     0  09:56        3.93
  CR-W21-800           JUNCTION     0.00     0.00    40.95     0  00:00        0.00
  CR-X22-800           JUNCTION     0.84     1.65    41.35     0  10:05        1.65
  CR-X22-801           JUNCTION     0.65     1.46    41.06     0  10:06        1.46
  CR-X22-802           JUNCTION     0.43     1.29    40.57     0  10:07        1.28
  GB-H22-811           JUNCTION     0.85     2.48    15.50     0  10:01        2.48
  GB-H22-815           JUNCTION     0.72     1.58    15.82     0  10:01        1.58
  GB-H23-802           JUNCTION     1.03     2.19    13.19     0  10:00        2.19
  GB-H23-803           JUNCTION     1.02     2.29    11.99     0  10:00        2.29
  GB-H24-801           JUNCTION     1.66     3.63    11.12     0  10:00        3.63
  GB-H26-800           JUNCTION     0.27     0.45     1.15     0  09:01        0.39
[...]
  MH-P28-105_MH-P28-104        1.90      1.90      2.22      0.01         0.01
  MH-P28-106_MH-P28-105        1.51      1.51      1.90      0.01         0.01
  MH-P28-107_MH-P28-106        1.45      1.45      1.51      0.01         0.01
  MH-P28-108_MH-P28-107        1.39      1.39      1.45      0.01         0.01
  MH-P28-109_MH-P28-110        5.47      5.47      5.50      2.12         2.40
  MH-P28-110_JS-P28-504        5.50      5.50      5.86      0.67         0.71
  MH-P28-111_JS-P28-502        1.59      1.59      2.25      0.01         0.01
  MH-P28-112_MH-P28-111        0.86      0.86      1.59      0.01         0.01
  MH-P32-103_JS-P32-506        0.01      0.01      0.01      0.01         0.01
  MH-P35-100_MH-P35-101        1.82      1.82      2.06      0.51         0.53
  MH-P35-101_MH-P36-100        2.06      2.06      2.44      0.55         0.56
  MH-P36-100_HW-P36-800        2.44      2.44      3.18      0.51         0.53
  MH-Q16-122_JS-Q17-500        0.01      0.01      0.36      0.01         0.01
  MH-Q18-101_JS-Q18-506        0.09      0.09      0.14      0.01         0.01
  MH-Q18-118_JS-Q18-510        0.29      0.29      0.45      0.01         0.01
  MH-Q18-121_MH-Q19-102        0.48      0.48      0.67      0.01         0.01
  MH-Q19-102_JS-Q19-510        0.67      0.67      0.70      0.01         0.01
  MH-Q19-109_TS-Q19-804        0.84      0.84      0.84      0.01         0.08
  MH-Q19-110_JS-Q20-501        1.09      1.28      1.09      1.79         1.09
  MH-Q20-102_JS-Q20-504        1.10      1.20      1.10      2.80         1.10
  MH-Q22-100_CB-Q23-300        0.70      0.70      0.95      0.01         0.08
  MH-Q22-100_MH-Q22-105        0.70      0.70      0.79      0.18         0.18
  MH-Q22-102_JS-Q22-503        1.41      1.41      1.42      0.01         0.18
  MH-Q22-103_JS-Q22-504        1.06      1.06      1.07      0.01         0.13
  MH-Q22-104_MH-Q22-103        0.83      0.83      1.06      0.01         0.02
  MH-Q22-105_MH-Q22-104        0.78      0.79      0.83      0.18         0.16
  MH-Q23-100_JS-Q23-500        1.04      1.04      1.38      0.01         0.03
  MH-Q28-103_MH-Q28-107        1.32      1.32      1.39      0.01         0.01
  MH-Q28-105_MH-P28-108        2.16      2.16      2.94      0.01         0.01
  MH-Q28-106_MH-Q28-105        2.10      2.10      2.16      0.01         0.01
  MH-Q28-107_MH-P28-112        0.45      0.45      0.86      0.01         0.01
  MH-Q30-101_JS-Q30-503        0.01      0.01      0.29      0.01         0.01
  MH-Q30-108_JS-Q30-505        0.47      0.47      0.70      0.01         0.01
  MH-Q31-101_JS-Q31-500        0.99      0.99      1.35      0.01         0.01
  MH-Q31-102_MH-Q31-104        1.40      1.40      1.88      0.01         0.01
  MH-Q31-104_MH-Q31-105        1.88      1.88      2.35      0.01         0.01
  MH-Q31-105_JS-Q31-502        2.35      2.35      2.51      0.01         0.01
  MH-Q31-106_MH-Q32-100        0.01      0.01      0.83      0.01         0.01
  MH-Q32-100_MH-Q32-101        0.83      0.83      0.90      0.01         0.01
  MH-Q32-101_MH-Q32-102        0.90      0.90      1.21      0.01         0.01
  MH-Q32-102_CB-Q32-302        1.21      1.21      1.23      0.01         0.06
  MH-R20-102_TS-R20-811        0.01      0.01      0.01      1.20         0.01
  MH-R27-101_MH-R27-102        1.42      1.42      1.70      0.63         0.63
  MH-R27-102_MH-R27-103        1.69      1.70      1.78      0.60         0.65
  MH-R27-103_MH-R27-104        1.78      1.78      1.79      0.01         0.22
  MH-R27-103_MH-R27-104_2        1.78      1.78      1.79      0.01         0.22
  MH-R27-103_MH-R27-105        2.17      2.19      2.19      2.18         1.43
  MH-R27-104_MH-R27-105        1.07      1.08      1.08      0.01         0.35
  MH-R27-105_JS-R27-500        1.00      1.08      1.00     20.64         0.99
  MH-R27-105_MH-R27-106        1.75      1.75      2.10     21.64         0.01
  MH-R27-106_MH-R28-102        1.72      1.72      1.85      1.06         1.05
  MH-R28-101_GB-R28-800        2.61      3.36      2.61      9.47         2.61
  MH-R29-101_MH-R29-102        0.01      0.01      0.02      0.01         0.01
  MH-R29-102_MH-R30-100        0.02      0.02      0.35      0.01         0.01
  MH-R30-100_MH-R30-101        0.35      0.35      0.60      0.01         0.01
  MH-R30-101_MH-R30-102        0.60      0.60      1.00      0.01         0.01
  MH-R30-102_JS-R30-500        0.96      1.00      0.96     19.41         0.96
  MH-S15-107_GB-S15-803        0.01      0.01      0.01      0.70         0.01
  MH-S15-108_MH-S15-107        0.01      0.01      0.01      0.80         0.01
  MH-S15-113_GB-S15-804        0.01      0.01      0.01      0.05         0.01
  MH-S15-116_MH-S15-113        0.01      0.01      0.01      0.01         0.01
  MH-S15-119_JS-S15-501        0.01      0.01      0.01      0.72         0.01
  MH-S16-103_MH-S16-105        0.18      0.18      0.20      0.01         0.01
  MH-S16-105_JS-S16-508        0.17      0.17      0.20      0.01         0.01
  MH-S16-109_MH-S16-111        0.46      0.46      0.60      0.01         0.01
  MH-S16-111_TS-S16-809        0.61      0.61      0.77      0.01         0.01
  MH-S17-101_JS-S17-507        0.14      0.14      0.17      0.01         0.01
  MH-S17-102_JS-S17-508        0.21      0.21      0.30      0.01         0.01
  MH-S17-103_CR-S17-807        0.92      0.92      0.95      0.01         0.01
  MH-S17-107_JS-S17-513        0.06      0.06      0.06      0.02         0.04
  MH-S17-116_JS-S17-524        0.13      0.13      0.13      0.56         0.11
  MH-S17-125_JS-S18-505        0.68      0.70      0.68      1.08         0.68
  MH-S18-101_JS-S18-523        0.68      0.68      0.71      0.01         0.01
  MH-S18-103_JS-S18-525        0.75      0.75      0.76      0.01         0.12
  MH-S18-114_JS-S18-531        0.82      0.82      0.87      0.01         0.01
  MH-S18-120_JS-S18-537        0.90      0.90      0.92      0.60         0.58
  MH-S18-122_JS-S18-542        1.04      1.04      1.05      0.01         0.15
  MH-S19-102_JS-S19-501        0.62      0.63      0.62      1.19         0.62
  MH-S19-106_JS-S19-507        0.44      0.54      0.44      1.19         0.44
  MH-S19-109_JS-S19-511        0.22      0.28      0.22      1.23         0.22
  MH-S19-114_TS-S19-815        0.01      0.01      0.01      1.22         0.01
  MH-S27-101_JS-R27-500        0.37      0.37      0.89      0.01         0.01
  MH-S27-102_JS-S27-500        0.34      0.34      0.65      0.01         0.01
  MH-S30-106_MH-S30-107        0.01      0.01      0.42      0.01         0.01
  MH-S30-107_JS-S30-503        0.01      0.01      0.01      0.01         0.01
  MH-S30-108_JS-R30-502        2.75      2.75      5.18      0.01         0.01
  MH-S30-109_MH-S30-108        1.38      1.38      2.75      0.01         0.01
  MH-S30-110_MH-S30-109        0.81      0.81      1.38      0.01         0.01
  MH-T20-100_JS-T20-500        0.01      0.72      0.01      1.36         0.01
  MH-T20-101_JS-T20-502        0.01      0.01      0.01      0.34         0.01
  MIS-P25-801_TS-P25-802       12.17     12.17     13.43      1.56         1.56
  MIS-P25-807_MIS-P25-809       20.42     20.42     20.42      0.25         2.10
  MIS-P25-809_JS-P25-509        6.21      6.21      6.28      3.68         3.81
  MIS-P25-812_JS-P25-509        0.79      0.79      0.92      0.01         0.01
  OFI-P17-1000_JSM-P18-514        0.01      0.01      0.04      0.01         0.01
  OUTFALL_DA                  0.01      0.01      0.01      1.41         0.01
  OUTFALL_ED                  0.01      0.01     23.00      0.01         0.01
  OUTFALL_HB_01              23.00     23.00     23.00      0.01         0.01
  OUTFALL_HB_02               0.01      0.01      0.01      3.43         0.01
  OUTFALL_HB_03               0.01      0.01      0.01      2.12         0.01
  OUTFALL_HB_04               0.01      0.70      0.01      1.11         0.01
  OUTFALL_HS_01              23.00     23.00     23.00     13.74        14.14
  OUTFALL_KIDDIE_BEACH       23.00     23.00     23.00      3.02         3.02
  OUTFALL_NV_02               0.01      0.01      0.01      0.79         0.01
  OUTFALL_WF_02               0.16      0.53      0.16      0.78         0.16
  OUTFALL_WV_02               0.01      0.01      0.01      2.03         0.01
  OUTFALL_WW                  0.01      0.01      0.01      3.70         0.01
  PL-K15-1200_JS-K15-502        0.24      0.24      0.26      0.01         0.01
  PL-K15-1201_JS-K15-503        0.24      0.24      0.26      0.01         0.01
  PL-M15-1200_JS-M15-500        0.54      0.54      0.55      0.01         0.01
  PL-O25-1201_JS-O25-501        0.01      0.01      0.01      0.45         0.01
  PL-P21-1200_JS-P21-515        1.83      1.83      1.84      0.01         0.35
  PL-P28-1200_JS-P28-500        1.11      1.11      1.16      0.01         0.01
  RR-N36-800_JS-N37-500        0.01      0.01      0.01      3.21         0.01
  RR-P37-800_CB-P37-301        1.61      1.61      1.69      0.01         0.02
  RR-V17-805_CR-V18-800        1.92      1.92     20.51      0.20         0.17
  TS-H22-810_TS-H22-812        1.57      1.57      1.58      0.75         0.75
  TS-H23-800_TS-H23-801        0.89      0.89      0.91      0.01         0.01
  TS-H24-800_GB-H24-801        0.17      0.17      1.49      0.01         0.01
  TS-H26-803_JS-H26-501       23.00     23.00     23.00     13.55        13.56
  TS-H27-804_JS-H27-501        0.01      0.01      0.01      2.63         0.01
  TS-J16-800_JS-J16-503        1.44      1.44      2.52      0.01         0.01
  TS-J16-801_JS-J16-504        7.98      7.98     20.46      0.01         0.01
  TS-J22-804_MH-J22-101        0.23      0.23      0.25      0.01         0.01
  TS-J22-807_GB-J22-806        0.01      0.01      0.01      0.59         0.01
  TS-L17-803_JS-L17-505        0.58      0.64      0.58      1.03         0.57
  TS-L18-800_TS-L18-801        1.74      1.78      1.74      2.74         1.55
  TS-L18-801_JS-L18-500        0.40      0.40      0.44      0.15         0.15
  TS-L18-805_TS-L18-806        1.33      1.37      1.33      1.95         1.07
  TS-L18-806_MH-L18-101        0.38      0.40      0.38      0.91         0.37
  TS-L18-807_TS-L18-808        0.99      1.02      1.00      1.24         0.73
  TS-L18-808_JS-L18-507        0.36      0.36      0.47      0.03         0.03
  TS-L18-809_TS-L18-810        1.44      1.51      1.44      2.45         1.07
  TS-L18-810_JS-L18-510        0.46      0.47      0.47      0.01         0.06
  TS-L19-800_MH-L19-102        0.38      0.38      0.65      0.01         0.01
  TS-L19-801_TS-L19-802        1.06      1.06      1.06      0.16         0.29
  TS-L19-802_JS-L19-504        0.70      0.70      0.72      0.06         0.08
  TS-L19-803_TS-L19-804        0.75      0.76      0.76      0.45         0.23
  TS-L19-804_JS-L19-513        0.77      0.77      0.77      0.04         0.07
  TS-L19-805_JS-L19-511        0.91      0.91      0.93      0.03         0.06
  TS-L19-806_TS-L19-805        1.84      1.84      1.85      0.11         0.44
  TS-L19-807_JS-L20-500        0.87      0.87      0.90      0.64         0.58
  TS-L19-808_JS-L19-515        0.78      0.78      0.78      0.02         0.15
  TS-L19-809_JS-L19-514        0.87      0.87      0.88      0.03         0.12
  TS-L19-810_TS-L19-809        0.85      0.86      0.86      0.02         0.16
  TS-L19-811_MH-L19-105        0.84      0.84      0.85      0.07         0.09
  TS-L19-812_TS-L19-811        0.83      0.84      0.83      2.74         0.64
  TS-L20-800_JS-L20-508        1.37      1.37      1.50      0.21         0.20
  TS-L21-800_JS-L22-502        2.52      2.52      3.47      0.13         0.12
  TS-L22-800_JS-L22-502        3.47      3.47      3.60      2.72         2.71
  TS-L22-802_JS-L22-508        2.17      2.19      2.17      2.38         2.13
  TS-L22-803_MH-L22-108        1.84      1.84      1.86      1.71         1.70
  TS-L22-804_JS-L22-505        0.19      0.25      0.19      1.84         0.18
  TS-L23-809_CR-L23-811        0.17      0.17      0.31      0.01         0.01
  TS-L23-810_JS-L23-558        0.01      0.01      0.08      0.01         0.01
  TS-L23-812_JS-L23-562        0.01      0.02      0.01      2.09         0.01
  TS-L23-814_TS-L23-815        0.01      0.01      0.01      0.22         0.01
  TS-L23-815_IN-L24-1000        0.01      0.01      0.47      0.01         0.01
  TS-L24-800_TS-L24-801        3.62      3.62      3.63      0.95         1.56
  TS-L24-801_JS-L24-504        6.19      6.19      6.33      2.97         2.94
  TS-L25-800_JS-L25-501        3.82      3.91      3.82      5.62         3.72
  TS-L25-801_JS-L25-502        0.01      0.01      0.01      0.01         0.01
  TS-L26-801_JS-L26-501        7.63      7.63      9.63      0.01         0.01
  TS-L26-802_JS-L26-505        3.43      3.43      3.61      0.01         0.01
  TS-L27-800_JS-L27-502       22.33     22.33     22.34      1.11         1.11
  TS-M12-803_JS-M12-500        0.01      0.01      0.99      1.86         0.01
  TS-M20-801_TS-M20-804        0.75      0.75      0.76      0.01         0.29
  TS-M20-802_JS-M20-503        0.01      0.01      0.11      0.01         0.01
  TS-M20-803_TS-M20-802        0.39      0.41      0.40      0.96         0.21
  TS-M20-804_JS-M20-505        0.33      0.33      0.33      0.01         0.15
  TS-M21-800_MH-M21-100        0.36      0.36      0.41      0.01         0.01
  TS-M21-803_MH-M21-106        0.44      0.44      0.47      0.01         0.01
  TS-M21-804_JS-M21-501        0.49      0.49      0.50      0.01         0.03
  TS-M22-800_JS-M22-501        0.69      0.70      0.70      0.01         0.07
  TS-M22-801_MH-L22-109        1.57      1.62      1.57      1.93         1.56
  TS-M22-802_MH-M22-102        1.20      1.20      1.21      0.01         0.08
  TS-M22-803_JS-M22-502        0.98      0.98      1.01      0.01         0.01
  TS-M22-804_TS-M22-803        1.34      1.34      1.34      0.64         0.51
  TS-M22-805_JS-M22-504        0.90      0.90      0.92      0.01         0.02
  TS-M22-806_TS-M22-805        2.29      2.31      2.29      3.78         2.29
  TS-M24-801_MH-M24-102        2.43      2.43      2.43      1.00         0.86
  TS-M24-802_JS-M24-507        1.58      1.58      1.60      0.50         0.56
  TS-M24-803_TS-M24-802        2.12      2.12      2.12      1.00         0.74
  TS-M31-800_JS-M31-502        0.83      0.85      0.83      1.30         0.83
  TS-N14-800_JS-N14-500        0.01      0.01      0.01      2.13         0.01
  TS-N14-803_JS-N14-501        0.01      0.01      0.01     17.03         0.01
  TS-N20-801_MH-N20-104        0.01      0.01      0.01      0.02         0.01
  TS-N24-800_MH-N24-106        2.02      2.02      2.03      1.23         1.19
  TS-N24-801_TS-N24-800        1.56      1.57      1.56      2.58         1.56
  TS-N24-803_MH-M24-105        0.01      0.01      2.15      0.01         0.01
  TS-N26-807_CB-N27-300        0.49      0.58      0.49      0.89         0.47
  TS-N28-801_JS-N28-501        0.01      0.01      0.01      1.52         0.01
  TS-N28-802_JS-N28-503        0.01      0.04      0.01      2.00         0.01
  TS-N31-800_MH-N31-101        0.68      0.68      0.68      0.01         0.23
  TS-N31-801_MH-N31-102        1.05      1.05      1.06      0.83         0.68
  TS-O15-800_TS-O14-819        2.17      2.17      2.28      0.01         0.01
  TS-O21-804_JS-O21-514        0.86      0.86      0.87      0.01         0.01
  TS-O23-800_TS-O23-801        0.38      0.38      0.38      0.01         0.11
  TS-O23-802_TS-O23-803        0.77      0.80      0.81      0.01         0.34
  TS-O23-803_TS-O23-804        0.02      0.02      0.26      0.01         0.01
  TS-O23-804_TS-O24-800        0.75      0.76      0.77      0.01         0.36
  TS-O24-800_MH-O24-100        0.26      0.26      0.68      0.01         0.01
  TS-O24-802_TS-P24-801        1.92      1.92      1.98      0.01         0.05
  TS-O26-801_JS-O26-503        0.21      0.22      0.23      0.01         0.09
  TS-O27-800_JS-O27-504        0.72      0.77      0.72      2.73         0.66
  TS-O28-800_JS-O28-500        1.04      1.06      1.04      1.26         0.67
  TS-O34-804_CR-O34-805        0.44      0.44      0.77      0.01         0.01
  TS-O34-804_CR-O34-806        0.44      0.44      0.80      0.01         0.01
  TS-O34-804_JS-O34-500        0.44      0.44      1.68      0.01         0.01
  TS-O34-808_JS-O34-509        1.59      1.59      1.65      0.01         0.01
  TS-O34-815_JS-O34-520       19.29     19.29     19.37      0.88         0.88
  TS-P21-804_MH-P21-104        1.28      1.28      1.45      0.01         0.05
  TS-P21-807_MH-P21-110        1.50      1.50      1.55      0.87         0.81
  TS-P21-809_JS-P21-514        1.58      1.58      1.66      0.59         0.57
  TS-P22-800_TS-P22-801        2.11      2.11      2.12      1.54         1.30
  TS-P22-801_TS-P22-802        0.91      0.92      0.91      1.63         0.89
  TS-P22-802_TS-P22-803        2.09      2.10      2.10      2.18         1.85
  TS-P22-803_JS-P22-502        0.91      0.91      0.91      0.65         0.49
  TS-P23-800_JS-P23-502        1.65      1.66      1.65      2.06         1.45
  TS-P23-801_JS-P23-505        2.30      2.30      2.44      0.01         0.01
  TS-P23-804_MH-P23-106        0.96      0.97      0.96      1.51         0.95
  TS-P23-805_TS-P23-806        2.89      2.98      2.89      8.89         2.89
  TS-P23-806_MH-P23-108        0.71      0.73      0.71      1.48         0.66
  TS-P23-807_JS-P23-508        1.48      1.50      1.48      2.06         1.01
  TS-P23-808_JS-P24-500        0.57      0.66      0.57      2.18         0.55
  TS-P24-800_JS-P24-501        1.80      1.98      1.80      6.19         1.76
  TS-P24-801_MH-P24-100        0.42      0.42      0.61      0.01         0.01
  TS-P24-802_TS-P24-803        2.71      2.71      2.75      0.35         1.03
  TS-P24-803_MH-P24-102        0.70      0.70      0.76      0.01         0.06
  TS-P24-804_JS-P24-507        0.04      0.16      0.04      2.18         0.02
  TS-P25-802_JS-P25-505        1.00      1.00      1.03      0.01         0.01
  TS-P32-800_IN-P32-1001        0.01      0.79      0.01      1.28         0.01
  TS-Q18-805_JS-Q18-504        0.02      0.02      0.03      0.01         0.01
  TS-Q19-804_JS-Q19-512        0.96      0.96      1.11      0.01         0.01
  TS-Q19-807_MH-Q19-110        1.28      1.30      1.28      1.42         1.22
  TS-Q20-801_CB-Q20-309        1.04      1.04      1.17      0.01         0.01
  TS-Q20-802_JS-Q20-511        1.05      1.05      1.10      0.01         0.09
  TS-Q20-802_TS-R20-811        2.93      5.04      2.93      3.18         2.93
  TS-R20-808_JS-R20-505        0.01      0.01      0.01      1.34         0.01
  TS-R20-809_JS-R20-503        0.01      0.01      0.01      0.60         0.01
  TS-R20-811_CR-R20-812        0.01      0.01      0.01      0.01         0.01
  TS-R28-804_TS-R29-800        0.01      0.01      0.01      0.98         0.01
  TS-R30-801_TS-R30-802        0.29      2.05      0.29      2.99         0.29
  TS-S16-809_JS-S17-501        0.84      0.84      0.91      0.01         0.01
  TS-S17-805_MH-S17-103        0.90      0.91      0.91      0.01         0.17
  TS-S17-828_JS-S17-540        0.59      0.59      0.60      0.01         0.07
  TS-S19-815_JS-S19-520        0.01      0.01      0.01      1.09         0.01
  TS-V17-804_RR-V17-805        1.42      1.44      1.92      0.02         0.31
  TS-V19-815_JS-V19-522        0.01      0.01      0.01      0.39         0.01
  VD-O34-700_JS-O34-508        2.49      2.49      2.52      0.01         0.01
  V_5                         0.01      0.25      0.01      1.56         0.01
  

  Analysis begun on:  Wed Jun 24 14:55:15 2026
  Analysis ended on:  Wed Jun 24 14:55:57 2026
  Total elapsed time: 00:00:42