
  EPA STORM WATER MANAGEMENT MODEL - VERSION 5.2 (Build 5.2.4)
  ------------------------------------------------------------

  WARNING 08: elevation drop exceeds length for Conduit 161915
  WARNING 08: elevation drop exceeds length for Conduit 162550
  WARNING 08: elevation drop exceeds length for Conduit 166733
  WARNING 08: elevation drop exceeds length for Conduit 167847
  WARNING 08: elevation drop exceeds length for Conduit 170098
  WARNING 08: elevation drop exceeds length for Conduit 170111
  WARNING 04: minimum elevation drop used for Conduit 171016
  WARNING 04: minimum elevation drop used for Conduit 171020
  WARNING 08: elevation drop exceeds length for Conduit 172861
  WARNING 08: elevation drop exceeds length for Conduit 177727
  WARNING 04: minimum elevation drop used for Conduit 177737
  WARNING 04: minimum elevation drop used for Conduit 177747
  WARNING 08: elevation drop exceeds length for Conduit 177962
  WARNING 04: minimum elevation drop used for Conduit 177964
  WARNING 08: elevation drop exceeds length for Conduit 177991
  WARNING 04: minimum elevation drop used for Conduit 177992
  WARNING 04: minimum elevation drop used for Conduit 178059
  WARNING 04: minimum elevation drop used for Conduit 178060
  WARNING 04: minimum elevation drop used for Conduit 178065
  WARNING 04: minimum elevation drop used for Conduit 178069
  WARNING 04: minimum elevation drop used for Conduit 178071
  WARNING 04: minimum elevation drop used for Conduit 178074
  WARNING 04: minimum elevation drop used for Conduit 178233
  WARNING 04: minimum elevation drop used for Conduit 178234
  WARNING 04: minimum elevation drop used for Conduit 178237
  WARNING 04: minimum elevation drop used for Conduit 178267
  WARNING 04: minimum elevation drop used for Conduit 178269
  WARNING 04: minimum elevation drop used for Conduit 178271
  WARNING 04: minimum elevation drop used for Conduit 178273
  WARNING 04: minimum elevation drop used for Conduit 178277
  WARNING 04: minimum elevation drop used for Conduit 178279
  WARNING 08: elevation drop exceeds length for Conduit 183276
  WARNING 04: minimum elevation drop used for Conduit 186656
  WARNING 08: elevation drop exceeds length for Conduit 187195
  WARNING 04: minimum elevation drop used for Conduit 192349
  WARNING 04: minimum elevation drop used for Conduit 193112
  WARNING 04: minimum elevation drop used for Conduit 197466
  WARNING 04: minimum elevation drop used for Conduit 198156
  WARNING 04: minimum elevation drop used for Conduit 203527
  WARNING 04: minimum elevation drop used for Conduit 208113
  WARNING 04: minimum elevation drop used for Conduit 208453
  WARNING 04: minimum elevation drop used for Conduit 208520
  WARNING 04: minimum elevation drop used for Conduit 209804
  WARNING 04: minimum elevation drop used for Conduit 209806
  WARNING 04: minimum elevation drop used for Conduit 209807
  WARNING 08: elevation drop exceeds length for Conduit 211047
  WARNING 08: elevation drop exceeds length for Conduit 211242
  WARNING 08: elevation drop exceeds length for Conduit 211245
  WARNING 04: minimum elevation drop used for Conduit 211253
  WARNING 04: minimum elevation drop used for Conduit 228571
  WARNING 08: elevation drop exceeds length for Conduit 248477
  WARNING 08: elevation drop exceeds length for Conduit 251000
  WARNING 08: elevation drop exceeds length for Conduit 251001
  WARNING 08: elevation drop exceeds length for Conduit 252573
  WARNING 04: minimum elevation drop used for Conduit 327470
  WARNING 08: elevation drop exceeds length for Conduit 335468
  WARNING 04: minimum elevation drop used for Conduit 339000
  WARNING 04: minimum elevation drop used for Conduit 341561
  WARNING 04: minimum elevation drop used for Conduit 341866
  WARNING 08: elevation drop exceeds length for Conduit 342195
  WARNING 08: elevation drop exceeds length for Conduit 344747
  WARNING 04: minimum elevation drop used for Conduit CDT-15
  WARNING 02: maximum depth increased for Node A13477
  WARNING 02: maximum depth increased for Node B10720
  WARNING 02: maximum depth increased for Node B10731
  WARNING 02: maximum depth increased for Node B18971
  WARNING 02: maximum depth increased for Node B18972
  WARNING 02: maximum depth increased for Node C12042
  WARNING 02: maximum depth increased for Node C12043
  WARNING 02: maximum depth increased for Node C15885
  WARNING 02: maximum depth increased for Node D11896
  WARNING 02: maximum depth increased for Node D12901
  WARNING 02: maximum depth increased for Node D12902
  WARNING 02: maximum depth increased for Node D17663
  WARNING 02: maximum depth increased for Node E10171
  WARNING 02: maximum depth increased for Node E10231
  WARNING 02: maximum depth increased for Node E10232
  WARNING 02: maximum depth increased for Node E10246
  WARNING 02: maximum depth increased for Node F11741
  WARNING 02: maximum depth increased for Node F11744
  WARNING 02: maximum depth increased for Node F11745
  WARNING 02: maximum depth increased for Node F11771
  WARNING 02: maximum depth increased for Node F12031
  WARNING 02: maximum depth increased for Node F12034
  WARNING 02: maximum depth increased for Node H17552
  WARNING 02: maximum depth increased for Node JCT-18
  WARNING 02: maximum depth increased for Node JCT-24
  WARNING 02: maximum depth increased for Node JCT-42
  WARNING 02: maximum depth increased for Node JCT-46
  WARNING 02: maximum depth increased for Node K14372
  WARNING 02: maximum depth increased for Node M10233
  WARNING 02: maximum depth increased for Node M20992
  WARNING 02: maximum depth increased for Node N14851
  WARNING 02: maximum depth increased for Node P10022
  WARNING 02: maximum depth increased for Node P10024
  WARNING 02: maximum depth increased for Node P10090
  WARNING 02: maximum depth increased for Node P13771
  
  ****************
  Analysis Options
  ****************
  Flow Units ............... GPM
  Process Models:
    Rainfall/Runoff ........ NO
    RDII ................... NO
    Snowmelt ............... NO
    Groundwater ............ NO
    Flow Routing ........... YES
    Ponding Allowed ........ NO
    Water Quality .......... NO
  Flow Routing Method ...... DYNWAVE
  Surcharge Method ......... EXTRAN
  Starting Date ............ 01/01/2002 00:00:00
  Ending Date .............. 01/01/2002 23:00:00
  Antecedent Dry Days ...... 5.0
  Report Time Step ......... 00:05:00
  Routing Time Step ........ 30.00 sec
  Variable Time Step ....... NO
  Maximum Trials ........... 8
  Number of Threads ........ 1
  Head Tolerance ........... 0.005000 ft
  
  
  ERROR 134: Node F12435 has illegal DUMMY link connections.

  Analysis begun on:  Wed Jun 24 15:00:27 2026
  Analysis ended on:  Wed Jun 24 15:00:27 2026
  Total elapsed time: < 1 sec