
  EPA STORM WATER MANAGEMENT MODEL - VERSION 5.2 (Build 5.2.4)
  ------------------------------------------------------------

  
  ERROR 211: invalid number  at line 10453 of [XSECT] section:
  20612006-20612050 ARCH         -9               -14        0          0          1                    

  
  ERROR 211: invalid number  at line 10660 of [XSECT] section:
  20612026-20612046 ARCH         -8.5             -13        0          0          1                    

  
  ERROR 211: invalid number  at line 10665 of [XSECT] section:
  20612031-20612052 ARCH         -8.5             -13        0          0          1                    

  
  ERROR 211: invalid number  at line 10671 of [XSECT] section:
  20612043-20612031 ARCH         -8.5             -13        0          0          1                    

  
  ERROR 211: invalid number  at line 10672 of [XSECT] section:
  20612044-20612043 ARCH         -8.5             -13        0          0          1                    

  
  ERROR 211: invalid number  at line 10673 of [XSECT] section:
  20612045-20612044 ARCH         -8.5             -13        0          0          1                    

  
  ERROR 211: invalid number  at line 10674 of [XSECT] section:
  20612046-20612045 ARCH         -8.5             -13        0          0          1                    

  
  ERROR 211: invalid number  at line 10675 of [XSECT] section:
  20612047-20612026 ARCH         -8.5             -13        0          0          1                    

  
  ERROR 211: invalid number  at line 10676 of [XSECT] section:
  20612050-20606020 ARCH         -9               -14        0          0          1                    

  
  ERROR 211: invalid number  at line 10677 of [XSECT] section:
  20612051-20612006 ARCH         -8.5             -13        0          0          1                    

  
  ERROR 211: invalid number  at line 10678 of [XSECT] section:
  20612052-20612051 ARCH         -8.5             -13        0          0          1                    

  
  ERROR 211: invalid number  at line 10712 of [XSECT] section:
  23909005-20612047 ARCH         -8.5             -13        0          0          1                    

  
  ERROR 211: invalid number  at line 10713 of [XSECT] section:
  23909006-23909005 ARCH         -8.5             -13        0          0          1                    

  
  ERROR 211: invalid number  at line 10902 of [XSECT] section:
  19305018-19304018 HORIZ_ELLIPSE -10              -15        0          0          1                    

  
  ERROR 211: invalid number  at line 10925 of [XSECT] section:
  20602021-20607010 ARCH         -10              -15        0          0          1                    

  
  ERROR 211: invalid number  at line 10935 of [XSECT] section:
  20606020-20606041 ARCH         -9               -14        0          0          1                    

  
  ERROR 211: invalid number  at line 10938 of [XSECT] section:
  20606041-20607009 ARCH         -9               -14        0          0          1                    

  
  ERROR 211: invalid number  at line 10943 of [XSECT] section:
  20607005-20602021 ARCH         -9               -14        0          0          1                    

  
  ERROR 211: invalid number  at line 10947 of [XSECT] section:
  20607009-20607025 ARCH         -9               -14        0          0          1                    

  
  ERROR 211: invalid number  at line 10948 of [XSECT] section:
  20607010-20608025 ARCH         -10              -15        0          0          1                    

  
  ERROR 211: invalid number  at line 10950 of [XSECT] section:
  20607025-20607005 ARCH         -9               -12.33     0          0          1                    

  
  ERROR 211: invalid number  at line 10960 of [XSECT] section:
  20608009-20608011 ARCH         -10              -15        0          0          1                    

  
  ERROR 211: invalid number  at line 10961 of [XSECT] section:
  20608010-20608023 ARCH         -10              -15        0          0          1                    

  
  ERROR 211: invalid number  at line 10962 of [XSECT] section:
  20608011-20608010 ARCH         -10              -15        0          0          1                    

  
  ERROR 211: invalid number  at line 10966 of [XSECT] section:
  20608023-19305018 ARCH         -10              -15        0          0          1                    

  
  ERROR 211: invalid number  at line 10967 of [XSECT] section:
  20608024-20608026 ARCH         -10              -15        0          0          1                    

  
  ERROR 211: invalid number  at line 10968 of [XSECT] section:
  20608025-20608024 ARCH         -10              -15        0          0          1                    

  
  ERROR 211: invalid number  at line 11903 of [XSECT] section:
  20708002-20708001 ARCH         -11.25           -15        0          0          1                    

  
  ERROR 211: invalid number  at line 11904 of [XSECT] section:
  20708003-20708026 ARCH         -11.25           -15        0          0          1                    

  
  ERROR 211: invalid number  at line 11912 of [XSECT] section:
  20708026-20708002 ARCH         -11.25           -15        0          0          1                    

  
  ERROR 211: invalid number  at line 12131 of [XSECT] section:
  19204030-19204019 ARCH         -11.33           -15        0          0          1                    

  
  ERROR 211: invalid number  at line 12248 of [XSECT] section:
  20708001-19204017 ARCH         -11.25           -15        0          0          1                    

  
  ERROR 211: invalid number  at line 12253 of [XSECT] section:
  19204017-19204030 ARCH         -11.33           -15        0          0          1                    

  
  ERROR 211: invalid number  at line 12254 of [XSECT] section:
  19204019-19204025 ARCH         -11.33           -15        0          0          1                    

  
  ERROR 211: invalid number  at line 12258 of [XSECT] section:
  19204033-19204027 ARCH         -11.25           -15        0          0          1                    

  
  ERROR 211: invalid number  at line 12260 of [XSECT] section:
  19204025-19204026 ARCH         -11.33           -15        0          0          1                    

  
  ERROR 211: invalid number  at line 12261 of [XSECT] section:
  19204026-19204033 ARCH         -11.33           -15        0          0          1                    

  
  ERROR 211: invalid number  at line 12280 of [XSECT] section:
  19304018-19304019 HORIZ_ELLIPSE -10              -15        0          0          1                    

  
  ERROR 211: invalid number  at line 12281 of [XSECT] section:
  19304019-19305020 HORIZ_ELLIPSE -10              -15        0          0          1                    

  
  ERROR 211: invalid number  at line 12287 of [XSECT] section:
  19305004-HRTDCHAMBER HORIZ_ELLIPSE -10              -15        0          0          1                    

  
  ERROR 211: invalid number  at line 12288 of [XSECT] section:
  HRTDCHAMBER-19306012 HORIZ_ELLIPSE -10              -15        0          0          1                    

  
  ERROR 211: invalid number  at line 12289 of [XSECT] section:
  HRTDCHAMBER-HRTGP HORIZ_ELLIPSE -10              -15        0          0          1                    

  
  ERROR 211: invalid number  at line 12297 of [XSECT] section:
  19305020-19305004 HORIZ_ELLIPSE -10              -15        0          0          1                    

  
  ERROR 211: invalid number  at line 12316 of [XSECT] section:
  19306012-19306018 HORIZ_ELLIPSE -10              -15        0          0          1                    

  
  ERROR 211: invalid number  at line 12887 of [XSECT] section:
  19504013-19504001 ARCH         -8.5             -12        0          0          1                    

  
  ERROR 211: invalid number  at line 12888 of [XSECT] section:
  19504014-19504024 ARCH         -8.5             -12        0          0          1                    

  
  ERROR 211: invalid number  at line 12889 of [XSECT] section:
  19504015-19505008 ARCH         -9               -12        0          0          1                    

  
  ERROR 211: invalid number  at line 12891 of [XSECT] section:
  19504017-19504013 ARCH         -8.5             -12        0          0          1                    

  
  ERROR 211: invalid number  at line 12892 of [XSECT] section:
  19504023-19504014 ARCH         -8.5             -12        0          0          1                    

  
  ERROR 211: invalid number  at line 12893 of [XSECT] section:
  19504024-19504017 ARCH         -8.5             -12        0          0          1                    

  
  ERROR 211: invalid number  at line 12900 of [XSECT] section:
  19505008-19505028 ARCH         -9               -12        0          0          1                    

  
  ERROR 211: invalid number  at line 12902 of [XSECT] section:
  19505010-19506008 ARCH         -9               -12        0          0          1                    

  
  ERROR 211: invalid number  at line 12915 of [XSECT] section:
  19505028-19505010 ARCH         -9               -12        0          0          1                    

  
  ERROR 211: invalid number  at line 12916 of [XSECT] section:
  19506007-19503019 ARCH         -9               -12        0          0          1                    

  
  ERROR 211: invalid number  at line 12917 of [XSECT] section:
  19506008-19506007 ARCH         -9               -12        0          0          1                    

  
  ERROR 211: invalid number  at line 12929 of [XSECT] section:
  19503019-19503020 ARCH         -9               -12        0          0          1                    

  
  ERROR 211: invalid number  at line 13182 of [XSECT] section:
  19503021-19503022 ARCH         -9               -12        0          0          1                    

  
  ERROR 211: invalid number  at line 13223 of [XSECT] section:
  20408004-20408024 ARCH         -8               -12        0          0          1                    

  
  ERROR 211: invalid number  at line 13239 of [XSECT] section:
  19503020-19503021 ARCH         -9               -12        0          0          1                    

  
  ERROR 211: invalid number  at line 13240 of [XSECT] section:
  19504001-19504015 ARCH         -8.5             -12        0          0          1                    

  
  ERROR 211: invalid number  at line 13302 of [XSECT] section:
  20401012-19504023 ARCH         -8.5             -12        0          0          1                    

  
  ERROR 211: invalid number  at line 13303 of [XSECT] section:
  20401013-20401012 ARCH         -8               -12        0          0          1                    

  
  ERROR 211: invalid number  at line 13304 of [XSECT] section:
  20401014-20401013 ARCH         -8               -12        0          0          1                    

  
  ERROR 211: invalid number  at line 13321 of [XSECT] section:
  20408024-20408026 ARCH         -8               -12        0          0          1                    

  
  ERROR 211: invalid number  at line 13322 of [XSECT] section:
  20408026-20401014 ARCH         -8               -12        0          0          1                    

  
  ERROR 211: invalid number  at line 13372 of [XSECT] section:
  19503022-19503022a ARCH         -9               -12        0          0          1                    


  Analysis begun on:  Wed Jun 24 15:00:27 2026
  Analysis ended on:  Wed Jun 24 15:00:27 2026
  Total elapsed time: < 1 sec