
  EPA STORM WATER MANAGEMENT MODEL - VERSION 5.2 (Build 5.2.4)
  ------------------------------------------------------------

  
  ERROR 209: undefined object 1 at line 51 of [SUBCATCHMENT] section:
  S10001           1                10001            0.035971 0.000000 10.700450 0.000000 0.000000                 

  
  ERROR 209: undefined object 1 at line 52 of [SUBCATCHMENT] section:
  S11690           1                11690            0.359100 0.000000 33.809031 1.577140 0.000000                 

  
  ERROR 209: undefined object 1 at line 53 of [SUBCATCHMENT] section:
  S11691           1                11691            0.488180 0.000000 39.419873 0.793257 0.000000                 

  
  ERROR 209: undefined object 1 at line 54 of [SUBCATCHMENT] section:
  S11692           1                11692            0.560764 0.000000 42.248877 1.018799 0.000000                 

  
  ERROR 209: undefined object 1 at line 55 of [SUBCATCHMENT] section:
  S11693           1                11693            0.426916 0.000000 36.863474 0.281984 0.000000                 

  
  ERROR 209: undefined object 1 at line 56 of [SUBCATCHMENT] section:
  S11697.1         1                11697            0.000000 0.000000 44.112169 0.000000 0.000000                 

  
  ERROR 209: undefined object 1 at line 57 of [SUBCATCHMENT] section:
  S11705           1                11705            0.228752 0.000000 26.984097 0.986544 0.000000                 

  
  ERROR 209: undefined object 1 at line 58 of [SUBCATCHMENT] section:
  S11706           1                11706            0.440855 0.000000 37.460448 0.978537 0.000000                 

  
  ERROR 209: undefined object 1 at line 59 of [SUBCATCHMENT] section:
  S11707           1                11707            0.580305 0.000000 42.978686 1.150227 0.000000                 

  
  ERROR 209: undefined object 1 at line 60 of [SUBCATCHMENT] section:
  S11708           1                11708            0.714725 0.000000 47.697379 4.557156 0.000000                 

  
  ERROR 209: undefined object 1 at line 61 of [SUBCATCHMENT] section:
  S11709           1                11709            0.699026 0.000000 47.170626 2.807364 0.000000                 

  
  ERROR 209: undefined object 1 at line 62 of [SUBCATCHMENT] section:
  S11710           1                11710            0.320867 0.000000 31.958591 0.748915 0.000000                 

  
  ERROR 209: undefined object 1 at line 63 of [SUBCATCHMENT] section:
  S11729.1         1                11729            0.000000 0.000000 33.467911 0.000000 0.000000                 

  
  ERROR 209: undefined object 1 at line 64 of [SUBCATCHMENT] section:
  S11729.2         1                11729            0.000000 0.000000 18.855417 0.000000 0.000000                 

  
  ERROR 209: undefined object 1 at line 65 of [SUBCATCHMENT] section:
  S11730.1         1                11730            0.000000 0.000000 30.062536 0.000000 0.000000                 

  
  ERROR 209: undefined object 1 at line 66 of [SUBCATCHMENT] section:
  S11731.1         1                11731            0.000000 0.000000 29.062865 0.000000 0.000000                 

  
  ERROR 209: undefined object 1 at line 67 of [SUBCATCHMENT] section:
  S11731.2         1                11731            0.000000 0.000000 39.853773 0.000000 0.000000                 

  
  ERROR 209: undefined object 1 at line 68 of [SUBCATCHMENT] section:
  S11732.1         1                11732            0.000000 0.000000 52.462202 1.003902 0.000000                 

  
  ERROR 209: undefined object 1 at line 69 of [SUBCATCHMENT] section:
  S11733.1         1                11733            0.000000 0.000000 19.511817 0.000000 0.000000                 

  
  ERROR 209: undefined object 1 at line 70 of [SUBCATCHMENT] section:
  S11733.2         1                11733            0.000000 0.000000 14.316986 0.000000 0.000000                 

  
  ERROR 209: undefined object 1 at line 71 of [SUBCATCHMENT] section:
  S11734.1         1                11734            0.000000 0.000000 29.811652 0.000000 0.000000                 

  
  ERROR 209: undefined object 1 at line 72 of [SUBCATCHMENT] section:
  S11735.1         1                11735            0.000000 0.000000 32.568186 0.000000 0.000000                 

  
  ERROR 209: undefined object 1 at line 73 of [SUBCATCHMENT] section:
  S11735.2         1                11735            0.000000 0.000000 41.018064 0.000000 0.000000                 

  
  ERROR 209: undefined object 1 at line 74 of [SUBCATCHMENT] section:
  S11736.1         1                11736            0.000000 0.000000 26.811672 3.579284 0.000000                 

  
  ERROR 209: undefined object 1 at line 75 of [SUBCATCHMENT] section:
  S11736.2         1                11736            0.000000 0.000000 35.249018 3.579284 0.000000                 

  
  ERROR 209: undefined object 1 at line 76 of [SUBCATCHMENT] section:
  S11737.1         1                11737            0.000000 0.000000 46.228046 0.956481 0.000000                 

  
  ERROR 209: undefined object 1 at line 77 of [SUBCATCHMENT] section:
  S11738.1         1                11738            0.000000 0.000000 45.227415 0.000000 0.000000                 

  
  ERROR 209: undefined object 1 at line 78 of [SUBCATCHMENT] section:
  S11761.1         1                11761            0.000000 0.000000 34.882394 0.000000 0.000000                 

  
  ERROR 209: undefined object 1 at line 79 of [SUBCATCHMENT] section:
  S11761.2         1                11761            0.000000 0.000000 19.373016 0.000000 0.000000                 

  
  ERROR 209: undefined object 1 at line 80 of [SUBCATCHMENT] section:
  S11761.3         1                11761            0.000000 0.000000 25.401980 0.000000 0.000000                 

  
  ERROR 209: undefined object 1 at line 81 of [SUBCATCHMENT] section:
  S11764.1         1                11764            0.000000 0.000000 30.588922 0.000000 0.000000                 

  
  ERROR 209: undefined object 1 at line 82 of [SUBCATCHMENT] section:
  S11764.2         1                11764            0.000000 0.000000 38.823695 0.000000 0.000000                 

  
  ERROR 209: undefined object 1 at line 83 of [SUBCATCHMENT] section:
  S11765.1         1                11765            0.000000 0.000000 26.655878 4.049684 0.000000                 

  
  ERROR 209: undefined object 1 at line 84 of [SUBCATCHMENT] section:
  S11765.2         1                11765            0.000000 0.000000 31.926432 4.049684 0.000000                 

  
  ERROR 209: undefined object 1 at line 85 of [SUBCATCHMENT] section:
  S11766.1         1                11766            0.000000 0.000000 53.122970 0.000000 0.000000                 

  
  ERROR 209: undefined object 1 at line 86 of [SUBCATCHMENT] section:
  S11767.1         1                11767            0.000000 0.000000 43.351056 0.000000 0.000000                 

  
  ERROR 209: undefined object 1 at line 87 of [SUBCATCHMENT] section:
  S11768.1         1                11768            0.000000 0.000000 21.527372 0.000000 0.000000                 

  
  ERROR 209: undefined object 1 at line 88 of [SUBCATCHMENT] section:
  S11768.2         1                11768            0.000000 0.000000 32.568746 0.000000 0.000000                 

  
  ERROR 209: undefined object 1 at line 89 of [SUBCATCHMENT] section:
  S11769.1         1                11769            0.000000 0.000000 22.847155 0.000000 0.000000                 

  
  ERROR 209: undefined object 1 at line 90 of [SUBCATCHMENT] section:
  S11769.2         1                11769            0.000000 0.000000 35.243959 0.000000 0.000000                 

  
  ERROR 209: undefined object 1 at line 91 of [SUBCATCHMENT] section:
  S11771           1                11771            0.000000 0.000000 38.814757 0.861940 0.000000                 

  
  ERROR 209: undefined object 1 at line 92 of [SUBCATCHMENT] section:
  S11771.1         1                11771            0.000000 0.000000 20.981129 0.861940 0.000000                 

  
  ERROR 209: undefined object 1 at line 93 of [SUBCATCHMENT] section:
  S11772.1         1                11772            0.000000 0.000000 29.917498 0.991973 0.000000                 

  
  ERROR 209: undefined object 1 at line 94 of [SUBCATCHMENT] section:
  S11772.2         1                11772            0.000000 0.000000 33.699048 0.991973 0.000000                 

  
  ERROR 209: undefined object 1 at line 95 of [SUBCATCHMENT] section:
  S11773.1         1                11773            0.000000 0.000000 40.648252 3.131146 0.000000                 

  
  ERROR 209: undefined object 1 at line 96 of [SUBCATCHMENT] section:
  S11777.1         1                11777            0.000000 0.000000 24.657345 6.250809 0.000000                 

  
  ERROR 209: undefined object 1 at line 97 of [SUBCATCHMENT] section:
  S11778.1         1                11778            0.000000 0.000000 42.627998 3.278703 0.000000                 

  
  ERROR 209: undefined object 1 at line 98 of [SUBCATCHMENT] section:
  S11779.1         1                11779            0.000000 0.000000 24.400595 0.000000 0.000000                 

  
  ERROR 209: undefined object 1 at line 99 of [SUBCATCHMENT] section:
  S11779.2         1                11779            0.000000 0.000000 28.137351 0.000000 0.000000                 

  
  ERROR 209: undefined object 1 at line 100 of [SUBCATCHMENT] section:
  S11780.1         1                11780            0.000000 0.000000 21.234469 0.000000 0.000000                 

  
  ERROR 209: undefined object 1 at line 101 of [SUBCATCHMENT] section:
  S11781.1         1                11781            0.000000 0.000000 23.792468 0.000000 0.000000                 

  
  ERROR 209: undefined object 1 at line 102 of [SUBCATCHMENT] section:
  S11781.2         1                11781            0.000000 0.000000 18.854076 0.000000 0.000000                 

  
  ERROR 209: undefined object 1 at line 103 of [SUBCATCHMENT] section:
  S11782.1         1                11782            0.000000 0.000000 23.655875 0.000000 0.000000                 

  
  ERROR 209: undefined object 1 at line 104 of [SUBCATCHMENT] section:
  S11782.2         1                11782            0.000000 0.000000 28.654366 0.000000 0.000000                 

  
  ERROR 209: undefined object 1 at line 105 of [SUBCATCHMENT] section:
  S11783.1         1                11783            0.000000 0.000000 34.958180 0.000000 0.000000                 

  
  ERROR 209: undefined object 1 at line 106 of [SUBCATCHMENT] section:
  S11783.2         1                11783            0.000000 0.000000 30.022671 0.000000 0.000000                 

  
  ERROR 209: undefined object 1 at line 107 of [SUBCATCHMENT] section:
  S11784.1         1                11784            0.000000 0.000000 12.953994 0.000000 0.000000                 

  
  ERROR 209: undefined object 1 at line 108 of [SUBCATCHMENT] section:
  S11784.2         1                11784            0.000000 0.000000 28.569523 0.000000 0.000000                 

  
  ERROR 209: undefined object 1 at line 109 of [SUBCATCHMENT] section:
  S11785.1         1                11785            0.000000 0.000000 28.336633 1.410481 0.000000                 

  
  ERROR 209: undefined object 1 at line 110 of [SUBCATCHMENT] section:
  S11785.2         1                11785            0.000000 0.000000 20.452627 1.410481 0.000000                 

  
  ERROR 209: undefined object 1 at line 111 of [SUBCATCHMENT] section:
  S11787.1         1                11787            0.000000 0.000000 31.799741 0.000000 0.000000                 

  
  ERROR 209: undefined object 1 at line 112 of [SUBCATCHMENT] section:
  S11787.2         1                11787            0.000000 0.000000 30.390715 0.000000 0.000000                 

  
  ERROR 209: undefined object 1 at line 113 of [SUBCATCHMENT] section:
  S11788.1         1                11788            0.000000 0.000000 17.302724 0.000000 0.000000                 

  
  ERROR 209: undefined object 1 at line 114 of [SUBCATCHMENT] section:
  S11789.1         1                11789            0.000000 0.000000 29.757780 5.164806 0.000000                 

  
  ERROR 209: undefined object 1 at line 115 of [SUBCATCHMENT] section:
  S11789.2         1                11789            0.000000 0.000000 28.937986 5.164806 0.000000                 

  
  ERROR 209: undefined object 1 at line 116 of [SUBCATCHMENT] section:
  S11791.1         1                11791            0.000000 0.000000 22.676894 0.000000 0.000000                 

  
  ERROR 209: undefined object 1 at line 117 of [SUBCATCHMENT] section:
  S11791.2         1                11791            0.000000 0.000000 35.964300 0.000000 0.000000                 

  
  ERROR 209: undefined object 1 at line 118 of [SUBCATCHMENT] section:
  S11792.1         1                11792            0.000000 0.000000 23.150615 0.000000 0.000000                 

  
  ERROR 209: undefined object 1 at line 119 of [SUBCATCHMENT] section:
  S11792.2         1                11792            0.000000 0.000000 32.334565 0.000000 0.000000                 

  
  ERROR 209: undefined object 1 at line 120 of [SUBCATCHMENT] section:
  S11793.1         1                11793            0.000000 0.000000 54.304004 1.127052 0.000000                 

  
  ERROR 209: undefined object 1 at line 121 of [SUBCATCHMENT] section:
  S11794.1         1                11794            0.000000 0.000000 35.289828 0.944233 0.000000                 

  
  ERROR 209: undefined object 1 at line 122 of [SUBCATCHMENT] section:
  S11794.2         1                11794            0.000000 0.000000 36.668656 0.944233 0.000000                 

  
  ERROR 209: undefined object 1 at line 123 of [SUBCATCHMENT] section:
  S11794.3         1                11794            0.000000 0.000000 27.670447 0.944233 0.000000                 

  
  ERROR 209: undefined object 1 at line 124 of [SUBCATCHMENT] section:
  S11794.4         1                11794            0.000000 0.000000 30.499387 0.944233 0.000000                 

  
  ERROR 209: undefined object 1 at line 125 of [SUBCATCHMENT] section:
  S11795.1         1                11795            0.000000 0.000000 30.450544 0.000000 0.000000                 

  
  ERROR 209: undefined object 1 at line 126 of [SUBCATCHMENT] section:
  S11795.2         1                11795            0.000000 0.000000 22.876208 0.000000 0.000000                 

  
  ERROR 209: undefined object 1 at line 127 of [SUBCATCHMENT] section:
  S11796.1         1                11796            0.000000 0.000000 26.532441 0.000000 0.000000                 

  
  ERROR 209: undefined object 1 at line 128 of [SUBCATCHMENT] section:
  S11796.2         1                11796            0.000000 0.000000 34.451323 0.000000 0.000000                 

  
  ERROR 209: undefined object 1 at line 129 of [SUBCATCHMENT] section:
  S11797.1         1                11797            0.000000 0.000000 19.582115 0.000000 0.000000                 

  
  ERROR 209: undefined object 1 at line 130 of [SUBCATCHMENT] section:
  S11798.1         1                11798            0.000000 0.000000 28.445455 5.121030 0.000000                 

  
  ERROR 209: undefined object 1 at line 131 of [SUBCATCHMENT] section:
  S11798.2         1                11798            0.000000 0.000000 27.904219 5.121030 0.000000                 

  
  ERROR 209: undefined object 1 at line 132 of [SUBCATCHMENT] section:
  S11799.1         1                11799            0.000000 0.000000 24.825501 3.250246 0.000000                 

  
  ERROR 209: undefined object 1 at line 133 of [SUBCATCHMENT] section:
  S11799.2         1                11799            0.000000 0.000000 29.821176 3.250246 0.000000                 

  
  ERROR 209: undefined object 1 at line 134 of [SUBCATCHMENT] section:
  S11799.3         1                11799            0.000000 0.000000 25.686812 3.250246 0.000000                 

  
  ERROR 209: undefined object 1 at line 135 of [SUBCATCHMENT] section:
  S11803.1         1                11803            0.000000 0.000000 18.933569 0.000000 0.000000                 

  
  ERROR 209: undefined object 1 at line 136 of [SUBCATCHMENT] section:
  S11803.2         1                11803            0.000000 0.000000 33.814966 0.000000 0.000000                 

  
  ERROR 209: undefined object 1 at line 137 of [SUBCATCHMENT] section:
  S11804.1         1                11804            0.000000 0.000000 30.228755 0.000000 0.000000                 

  
  ERROR 209: undefined object 1 at line 138 of [SUBCATCHMENT] section:
  S11805.1         1                11805            0.000000 0.000000 39.207990 3.229748 0.000000                 

  
  ERROR 209: undefined object 1 at line 139 of [SUBCATCHMENT] section:
  S11805.2         1                11805            0.000000 0.000000 20.713313 3.229748 0.000000                 

  
  ERROR 209: undefined object 1 at line 140 of [SUBCATCHMENT] section:
  S11806.1         1                11806            0.000000 0.000000 22.681513 0.000000 0.000000                 

  
  ERROR 209: undefined object 1 at line 141 of [SUBCATCHMENT] section:
  S11808.1         1                11808            0.000000 0.000000 39.088287 1.628370 0.000000                 

  
  ERROR 209: undefined object 1 at line 142 of [SUBCATCHMENT] section:
  S11810.1         1                11810            0.000000 0.000000 34.874369 0.000000 0.000000                 

  
  ERROR 209: undefined object 1 at line 143 of [SUBCATCHMENT] section:
  S11810.2         1                11810            0.000000 0.000000 37.659129 0.000000 0.000000                 

  
  ERROR 209: undefined object 1 at line 144 of [SUBCATCHMENT] section:
  S11811.1         1                11811            0.000000 0.000000 31.245149 1.002815 0.000000                 

  
  ERROR 209: undefined object 1 at line 145 of [SUBCATCHMENT] section:
  S11811.2         1                11811            0.000000 0.000000 30.728009 1.002815 0.000000                 

  
  ERROR 209: undefined object 1 at line 146 of [SUBCATCHMENT] section:
  S11811.3         1                11811            0.000000 0.000000 29.405611 1.002815 0.000000                 

  
  ERROR 209: undefined object 1 at line 147 of [SUBCATCHMENT] section:
  S11811.4         1                11811            0.000000 0.000000 33.234687 1.002815 0.000000                 

  
  ERROR 209: undefined object 1 at line 148 of [SUBCATCHMENT] section:
  S11812.1         1                11812            0.000000 0.000000 26.394987 0.000000 0.000000                 

  
  ERROR 209: undefined object 1 at line 149 of [SUBCATCHMENT] section:
  S11813.1         1                11813            0.000000 0.000000 26.234519 0.000000 0.000000                 

  
  ERROR 209: undefined object 1 at line 150 of [SUBCATCHMENT] section:
  S11814.1         1                11814            0.000000 0.000000 51.240002 2.819054 0.000000                 

  
  Maximum error count exceeded.

  Analysis begun on:  Wed Jun 24 15:00:27 2026
  Analysis ended on:  Wed Jun 24 15:00:27 2026
  Total elapsed time: < 1 sec