
  EPA STORM WATER MANAGEMENT MODEL - VERSION 5.2 (Build 5.2.4)
  ------------------------------------------------------------

  WARNING 03: negative offset ignored for Link 10338
  WARNING 03: negative offset ignored for Link 10339
  WARNING 03: negative offset ignored for Link 10340
  WARNING 03: negative offset ignored for Link 10754
  WARNING 03: negative offset ignored for Link 12198
  WARNING 03: negative offset ignored for Link 12687
  WARNING 03: negative offset ignored for Link 12786
  WARNING 03: negative offset ignored for Link 12789
  WARNING 03: negative offset ignored for Link 12911
  WARNING 03: negative offset ignored for Link 13776
  WARNING 03: negative offset ignored for Link 13815
  WARNING 03: negative offset ignored for Link 13819
  WARNING 03: negative offset ignored for Link 13822
  WARNING 03: negative offset ignored for Link 13822
  WARNING 03: negative offset ignored for Link 13823
  WARNING 03: negative offset ignored for Link 13823
  WARNING 03: negative offset ignored for Link 13921
  WARNING 03: negative offset ignored for Link 13922
  WARNING 03: negative offset ignored for Link 13922
  WARNING 03: negative offset ignored for Link 13923
  WARNING 03: negative offset ignored for Link 13923
  WARNING 03: negative offset ignored for Link 13963
  WARNING 03: negative offset ignored for Link 15010
  WARNING 03: negative offset ignored for Link 15831
  WARNING 03: negative offset ignored for Link 15884
  WARNING 03: negative offset ignored for Link 16029
  WARNING 03: negative offset ignored for Link 16281
  WARNING 03: negative offset ignored for Link 17849
  WARNING 03: negative offset ignored for Link 17902
  WARNING 03: negative offset ignored for Link 17902
  WARNING 03: negative offset ignored for Link 18544
  WARNING 03: negative offset ignored for Link 20081
  WARNING 03: negative offset ignored for Link 20082
  WARNING 03: negative offset ignored for Link 20525
  WARNING 03: negative offset ignored for Link 20526
  WARNING 03: negative offset ignored for Link 20527
  WARNING 03: negative offset ignored for Link 20528
  WARNING 03: negative offset ignored for Link 20529
  WARNING 03: negative offset ignored for Link 20531
  WARNING 04: minimum elevation drop used for Conduit 20536
  WARNING 03: negative offset ignored for Link 20537
  WARNING 03: negative offset ignored for Link 22512
  WARNING 03: negative offset ignored for Link 23084
  WARNING 03: negative offset ignored for Link 23088
  WARNING 03: negative offset ignored for Link 23090
  WARNING 03: negative offset ignored for Link 23090
  WARNING 03: negative offset ignored for Link 23316
  WARNING 03: negative offset ignored for Link 23384
  WARNING 08: elevation drop exceeds length for Conduit 23426
  WARNING 03: negative offset ignored for Link 23430
  WARNING 03: negative offset ignored for Link 23431
  WARNING 03: negative offset ignored for Link 23431
  WARNING 03: negative offset ignored for Link 23601
  WARNING 03: negative offset ignored for Link 23601
  WARNING 03: negative offset ignored for Link 23602
  WARNING 03: negative offset ignored for Link 23602
  WARNING 03: negative offset ignored for Link 23621
  WARNING 03: negative offset ignored for Link 23743
  WARNING 03: negative offset ignored for Link 23762
  WARNING 03: negative offset ignored for Link 23866
  WARNING 03: negative offset ignored for Link 23866
  WARNING 03: negative offset ignored for Link 23867
  WARNING 03: negative offset ignored for Link 23869
  WARNING 03: negative offset ignored for Link 23937
  WARNING 03: negative offset ignored for Link 23937
  WARNING 03: negative offset ignored for Link 23939
  WARNING 03: negative offset ignored for Link 24035
  WARNING 03: negative offset ignored for Link 24036
  WARNING 03: negative offset ignored for Link 24163
  WARNING 03: negative offset ignored for Link 24750
  WARNING 04: minimum elevation drop used for Conduit 24750
  WARNING 03: negative offset ignored for Link 25255
  WARNING 03: negative offset ignored for Link 25700
  WARNING 03: negative offset ignored for Link 25946
  WARNING 04: minimum elevation drop used for Conduit 25946
  WARNING 03: negative offset ignored for Link 25947
  WARNING 04: minimum elevation drop used for Conduit 25947
  WARNING 04: minimum elevation drop used for Conduit 26163
  WARNING 03: negative offset ignored for Link 27016
  WARNING 03: negative offset ignored for Link 27018
  WARNING 03: negative offset ignored for Link 27019
  WARNING 03: negative offset ignored for Link 27028
  WARNING 03: negative offset ignored for Link 27043
  WARNING 03: negative offset ignored for Link 27043
  WARNING 04: minimum elevation drop used for Conduit 27043
  WARNING 03: negative offset ignored for Link 27045
  WARNING 03: negative offset ignored for Link 27049
  WARNING 03: negative offset ignored for Link 27052
  WARNING 03: negative offset ignored for Link 27052
  WARNING 03: negative offset ignored for Link 27053
  WARNING 03: negative offset ignored for Link 27053
  WARNING 03: negative offset ignored for Link 27054
  WARNING 03: negative offset ignored for Link 27054
  WARNING 03: negative offset ignored for Link 27056
  WARNING 03: negative offset ignored for Link 27056
  WARNING 03: negative offset ignored for Link 27058
  WARNING 03: negative offset ignored for Link 27060
  WARNING 03: negative offset ignored for Link 27062
  WARNING 03: negative offset ignored for Link 27066
  WARNING 03: negative offset ignored for Link 27068
  WARNING 03: negative offset ignored for Link 27069
  WARNING 03: negative offset ignored for Link 27069
  WARNING 04: minimum elevation drop used for Conduit 27069
  WARNING 03: negative offset ignored for Link 27070
  WARNING 03: negative offset ignored for Link 27075
  WARNING 03: negative offset ignored for Link 27291
  WARNING 04: minimum elevation drop used for Conduit 27292
  WARNING 03: negative offset ignored for Link 27293
  WARNING 03: negative offset ignored for Link 28308
  WARNING 03: negative offset ignored for Link 28482
  WARNING 03: negative offset ignored for Link 29140
  WARNING 03: negative offset ignored for Link 31424
  WARNING 03: negative offset ignored for Link 31424
  WARNING 03: negative offset ignored for Link 31428
  WARNING 03: negative offset ignored for Link 31428
  WARNING 03: negative offset ignored for Link 31431
  WARNING 03: negative offset ignored for Link 31432
  WARNING 03: negative offset ignored for Link 31433
  WARNING 03: negative offset ignored for Link 31433
  WARNING 03: negative offset ignored for Link 31435
  WARNING 03: negative offset ignored for Link 31440
  WARNING 03: negative offset ignored for Link 31440
  WARNING 03: negative offset ignored for Link 31441
  WARNING 03: negative offset ignored for Link 31441
  WARNING 03: negative offset ignored for Link 31805
  WARNING 03: negative offset ignored for Link 31962
  WARNING 03: negative offset ignored for Link 32682
  WARNING 03: negative offset ignored for Link 32760
  WARNING 04: minimum elevation drop used for Conduit 32760
  WARNING 03: negative offset ignored for Link 32761
  WARNING 03: negative offset ignored for Link 5590
  WARNING 03: negative offset ignored for Link 5593
  WARNING 03: negative offset ignored for Link 5654
  WARNING 03: negative offset ignored for Link 5658
  WARNING 03: negative offset ignored for Link 5779
  WARNING 04: minimum elevation drop used for Conduit 5779
  WARNING 03: negative offset ignored for Link 5829
  WARNING 03: negative offset ignored for Link 5867
  WARNING 03: negative offset ignored for Link 5869
  WARNING 03: negative offset ignored for Link 7775
  WARNING 03: negative offset ignored for Link 7904
  WARNING 03: negative offset ignored for Link 8132
  WARNING 03: negative offset ignored for Link 8464
  WARNING 03: negative offset ignored for Link 8571
  WARNING 03: negative offset ignored for Link 8646
  WARNING 03: negative offset ignored for Link 8677
  WARNING 03: negative offset ignored for Link 8751
  WARNING 03: negative offset ignored for Link 8786
  WARNING 03: negative offset ignored for Link 8963
  WARNING 03: negative offset ignored for Link 8963
  WARNING 03: negative offset ignored for Link 8964
  WARNING 03: negative offset ignored for Link 9125
  WARNING 03: negative offset ignored for Link 9129
  WARNING 03: negative offset ignored for Link 9283
  WARNING 03: negative offset ignored for Link 9449
  WARNING 03: negative offset ignored for Link 9489
  WARNING 03: negative offset ignored for Link 9675
  WARNING 03: negative offset ignored for Link 9808
  WARNING 03: negative offset ignored for Link 9809
  WARNING 03: negative offset ignored for Link 9826
  WARNING 03: negative offset ignored for Link 9832
  WARNING 03: negative offset ignored for Link 9833
  WARNING 03: negative offset ignored for Link 9845
  WARNING 03: negative offset ignored for Link 9859
  WARNING 03: negative offset ignored for Link 9866
  WARNING 03: negative offset ignored for Link PRM1006-1
  WARNING 03: negative offset ignored for Link PRM1006-1
  WARNING 03: negative offset ignored for Link PRM1006-2
  WARNING 03: negative offset ignored for Link PRM1006-2
  WARNING 03: negative offset ignored for Link PRM1006-3
  WARNING 04: minimum elevation drop used for Conduit PRM1006-4
  WARNING 04: minimum elevation drop used for Conduit PRM1010-1
  WARNING 04: minimum elevation drop used for Conduit PRM1010-2
  WARNING 03: negative offset ignored for Link PRM1014-1
  WARNING 03: negative offset ignored for Link PRM1014-1
  WARNING 04: minimum elevation drop used for Conduit SRM1010_BN
  WARNING 04: minimum elevation drop used for Conduit WWTP-INLET
  WARNING 02: maximum depth increased for Node 10150
  WARNING 02: maximum depth increased for Node 10617
  WARNING 02: maximum depth increased for Node 11582
  WARNING 02: maximum depth increased for Node 13074
  WARNING 02: maximum depth increased for Node 13548
  WARNING 02: maximum depth increased for Node 14028
  WARNING 02: maximum depth increased for Node 14031
  WARNING 02: maximum depth increased for Node 14139
  WARNING 02: maximum depth increased for Node 14168
  WARNING 02: maximum depth increased for Node 14188
  WARNING 02: maximum depth increased for Node 14189
  WARNING 02: maximum depth increased for Node 15445
  WARNING 02: maximum depth increased for Node 15707
  WARNING 02: maximum depth increased for Node 16821
  WARNING 02: maximum depth increased for Node 16842
  WARNING 02: maximum depth increased for Node 16845
  WARNING 02: maximum depth increased for Node 16901
  WARNING 02: maximum depth increased for Node 17421
  WARNING 02: maximum depth increased for Node 17892
  WARNING 02: maximum depth increased for Node 19143
  WARNING 02: maximum depth increased for Node 19144
  WARNING 02: maximum depth increased for Node 19146
  WARNING 02: maximum depth increased for Node 19150
  WARNING 02: maximum depth increased for Node 21410
  WARNING 02: maximum depth increased for Node 21701
  WARNING 02: maximum depth increased for Node 21705
  WARNING 02: maximum depth increased for Node 21708
  WARNING 02: maximum depth increased for Node 21789
  WARNING 02: maximum depth increased for Node 21973
  WARNING 02: maximum depth increased for Node 22063
  WARNING 02: maximum depth increased for Node 22066
  WARNING 02: maximum depth increased for Node 22529
  WARNING 02: maximum depth increased for Node 22530
  WARNING 02: maximum depth increased for Node 22638
  WARNING 02: maximum depth increased for Node 23132
  WARNING 02: maximum depth increased for Node 25735
  WARNING 02: maximum depth increased for Node 25736
  WARNING 02: maximum depth increased for Node 25737
  WARNING 02: maximum depth increased for Node 2574
  WARNING 02: maximum depth increased for Node 25743
  WARNING 02: maximum depth increased for Node 25748
  WARNING 02: maximum depth increased for Node 2575
  WARNING 02: maximum depth increased for Node 25750
  WARNING 02: maximum depth increased for Node 25753
  WARNING 02: maximum depth increased for Node 25754
  WARNING 02: maximum depth increased for Node 25755
  WARNING 02: maximum depth increased for Node 25757
  WARNING 02: maximum depth increased for Node 25759
  WARNING 02: maximum depth increased for Node 2576
  WARNING 02: maximum depth increased for Node 25760
  WARNING 02: maximum depth increased for Node 25762
  WARNING 02: maximum depth increased for Node 25763
  WARNING 02: maximum depth increased for Node 25764
  WARNING 02: maximum depth increased for Node 25768
  WARNING 02: maximum depth increased for Node 25935
  WARNING 02: maximum depth increased for Node 26243
  WARNING 02: maximum depth increased for Node 2704
  WARNING 02: maximum depth increased for Node 2707
  WARNING 02: maximum depth increased for Node 30366
  WARNING 02: maximum depth increased for Node 30383
  WARNING 02: maximum depth increased for Node 30384
  WARNING 02: maximum depth increased for Node 30385
  WARNING 02: maximum depth increased for Node 30386
  WARNING 02: maximum depth increased for Node 30390
  WARNING 02: maximum depth increased for Node 30403
  WARNING 02: maximum depth increased for Node 31651
  WARNING 02: maximum depth increased for Node 9415
  WARNING 02: maximum depth increased for Node 9983
  WARNING 02: maximum depth increased for Node SPS1009_PN
  WARNING 02: maximum depth increased for Node SPS1010_PN
  WARNING 02: maximum depth increased for Node SPS1012_PN
  WARNING 02: maximum depth increased for Node SPS1016_PN
  WARNING 02: maximum depth increased for Node SPS1017_PN
  WARNING 02: maximum depth increased for Node SPS1018_PN
  
  ****************
  Analysis Options
  ****************
  Flow Units ............... LPS
  Process Models:
    Rainfall/Runoff ........ NO
    RDII ................... NO
    Snowmelt ............... NO
    Groundwater ............ NO
    Flow Routing ........... YES
    Ponding Allowed ........ NO
    Water Quality .......... NO
  Flow Routing Method ...... DYNWAVE
  Surcharge Method ......... EXTRAN
  Starting Date ............ 05/09/2018 00:00:00
  Ending Date .............. 05/10/2018 00:00:00
  Antecedent Dry Days ...... 0.0
  Report Time Step ......... 00:01:00
  Routing Time Step ........ 10.00 sec
  Variable Time Step ....... NO
  Maximum Trials ........... 8
  Number of Threads ........ 1
  Head Tolerance ........... 0.005000 m
  
  
  **************************        Volume        Volume
  Flow Routing Continuity        hectare-m      10^6 ltr
  **************************     ---------     ---------
  Dry Weather Inflow .......         0.501         5.015
  Wet Weather Inflow .......         0.000         0.000
  Groundwater Inflow .......         0.000         0.000
  RDII Inflow ..............         0.000         0.000
  External Inflow ..........         0.000         0.000
  External Outflow .........         0.611         6.107
  Flooding Loss ............         0.032         0.324
  Evaporation Loss .........         0.000         0.000
  Exfiltration Loss ........         0.000         0.000
  Initial Stored Volume ....         0.019         0.191
  Final Stored Volume ......         0.121         1.209
  Continuity Error (%) .....       -46.775
  
  
  *************************
  Highest Continuity Errors
  *************************
  Node 14188 (100.00%)
  Node MWWTP (-92.36%)
  Node 9285 (55.27%)
  Node 13016 (51.75%)
  Node 9308 (50.80%)
  
  
  ********************************
  Highest Flow Instability Indexes
  ********************************
  Link 22788 (89)
  Link WWTP-INLET (65)
  Link 32723 (62)
  Link 5618 (61)
  Link 9310 (60)
  
  
  *********************************
  Most Frequent Nonconverging Nodes
  *********************************
  Node WWTP-INLET (93.88%)
  Node 2450 (60.38%)
  Node 19149 (60.01%)
  Node 21701 (56.13%)
  Node 21706 (54.14%)
  
  
  *************************
  Routing Time Step Summary
  *************************
  Minimum Time Step           :    10.00 sec
  Average Time Step           :    10.00 sec
  Maximum Time Step           :    10.00 sec
  % of Time in Steady State   :     0.00
  Average Iterations per Step :     7.82
  % of Steps Not Converging   :    93.88
  
  
  ******************
  Node Depth Summary
  ******************
  
  ---------------------------------------------------------------------------------
                                 Average  Maximum  Maximum  Time of Max    Reported
                                   Depth    Depth      HGL   Occurrence   Max Depth
  Node                 Type       Meters   Meters   Meters  days hr:min      Meters
  ---------------------------------------------------------------------------------
  10000                JUNCTION     0.00     0.00    14.59     0  00:00        0.00
  10001                JUNCTION     0.00     0.00    12.68     0  00:00        0.00
  10002                JUNCTION     0.00     0.00    10.23     0  00:00        0.00
  10003                JUNCTION     0.00     0.00    19.60     0  00:00        0.00
  10004                JUNCTION     0.00     0.00    21.99     0  00:00        0.00
  10005                JUNCTION     0.00     0.00    22.33     0  00:00        0.00
  10006                JUNCTION     0.00     0.00     8.27     0  00:00        0.00
  10007                JUNCTION     0.00     0.00     3.77     0  00:00        0.00
  10008                JUNCTION     0.00     0.00     6.02     0  00:00        0.00
  10009                JUNCTION     0.00     0.00    12.72     0  00:00        0.00
  10010                JUNCTION     0.00     0.00    13.11     0  00:00        0.00
  10011                JUNCTION     0.00     0.00     7.77     0  00:00        0.00
  10012                JUNCTION     0.00     0.00     6.05     0  00:00        0.00
  10013                JUNCTION     0.00     0.00     5.47     0  00:00        0.00
  10014                JUNCTION     0.00     0.00     4.87     0  00:00        0.00
  10015                JUNCTION     0.00     0.00     4.34     0  00:00        0.00
  10016                JUNCTION     0.00     0.00     5.76     0  00:00        0.00
  10017                JUNCTION     0.00     0.00     4.15     0  00:00        0.00
  10018                JUNCTION     0.00     0.00     6.60     0  00:00        0.00
  10019                JUNCTION     0.00     0.00    10.80     0  00:00        0.00
  10020                JUNCTION     0.00     0.00    12.86     0  00:00        0.00
  10021                JUNCTION     0.00     0.00    13.85     0  00:00        0.00
  10022                JUNCTION     0.00     0.00    15.95     0  00:00        0.00
  10023                JUNCTION     0.00     0.00    19.30     0  00:00        0.00
  10024                JUNCTION     0.00     0.00    19.50     0  00:00        0.00
  10025                JUNCTION     0.00     0.00    16.54     0  00:00        0.00
  10026                JUNCTION     0.00     0.00    16.93     0  00:00        0.00
  10027                JUNCTION     0.00     0.00    11.62     0  00:00        0.00
  10028                JUNCTION     0.00     0.00     9.67     0  00:00        0.00
  10029                JUNCTION     0.00     0.00     8.78     0  00:00        0.00
  10030                JUNCTION     0.00     0.00     6.25     0  00:00        0.00
  10031                JUNCTION     0.00     0.00     5.12     0  00:00        0.00
  10032                JUNCTION     0.00     0.00     7.34     0  00:00        0.00
  10033                JUNCTION     0.00     0.00     5.39     0  00:00        0.00
  10034                JUNCTION     0.00     0.00     6.06     0  00:00        0.00
  10035                JUNCTION     0.00     0.00     6.58     0  00:00        0.00
  10036                JUNCTION     0.00     0.00     7.44     0  00:00        0.00
  10037                JUNCTION     0.00     0.00     9.14     0  00:00        0.00
  10038                JUNCTION     0.00     0.00    27.77     0  00:00        0.00
  10039                JUNCTION     0.00     0.00    20.80     0  00:00        0.00
  10040                JUNCTION     0.00     0.00    19.59     0  00:00        0.00
  10041                JUNCTION     0.00     0.00    17.10     0  00:00        0.00
  10042                JUNCTION     0.00     0.00    11.46     0  00:00        0.00
  10043                JUNCTION     0.00     0.00     9.38     0  00:00        0.00
  10044                JUNCTION     0.00     0.00     7.03     0  00:00        0.00
  10045                JUNCTION     0.00     0.00    14.40     0  00:00        0.00
  10046                JUNCTION     0.00     0.00    12.70     0  00:00        0.00
  10047                JUNCTION     0.00     0.00    11.40     0  00:00        0.00
  10048                JUNCTION     0.00     0.00    11.10     0  00:00        0.00
  10049                JUNCTION     0.00     0.00    10.97     0  00:00        0.00
  10050                JUNCTION     0.00     0.00    20.30     0  00:00        0.00
  10051                JUNCTION     0.00     0.00    18.30     0  00:00        0.00
  10052                JUNCTION     0.00     0.00    18.00     0  00:00        0.00
  10053                JUNCTION     0.00     0.00    22.80     0  00:00        0.00
  10054                JUNCTION     0.00     0.00    18.39     0  00:00        0.00
  10055                JUNCTION     0.00     0.00    24.80     0  00:00        0.00
  10056                JUNCTION     0.00     0.00    19.84     0  00:00        0.00
  10057                JUNCTION     0.00     0.00    21.83     0  00:00        0.00
  10058                JUNCTION     0.00     0.00    25.86     0  00:00        0.00
  10059                JUNCTION     0.00     0.00    28.10     0  00:00        0.00
  10060                JUNCTION     0.00     0.00    24.78     0  00:00        0.00
  10061                JUNCTION     0.00     0.00    25.08     0  00:00        0.00
  10062                JUNCTION     0.00     0.00    22.84     0  00:00        0.00
  10063                JUNCTION     0.00     0.00    22.60     0  00:00        0.00
  10064                JUNCTION     0.00     0.00    18.47     0  00:00        0.00
  10065                JUNCTION     0.00     0.00    28.88     0  00:00        0.00
  10066                JUNCTION     0.01     0.07     4.06     0  05:35        0.07
  10067                JUNCTION     0.05     0.07     2.06     0  18:24        0.07
  10068                JUNCTION     0.01     0.01     2.08     0  10:42        0.01
  10069                JUNCTION     0.00     0.00     3.39     0  00:00        0.00
  10070                JUNCTION     0.00     0.00     6.54     0  00:00        0.00
  10071                JUNCTION     0.00     0.00     8.19     0  00:00        0.00
  10072                JUNCTION     0.00     0.00    13.04     0  00:00        0.00
  10073                JUNCTION     0.00     0.00    10.86     0  00:00        0.00
  10074                JUNCTION     0.00     0.00    13.72     0  00:00        0.00
  10075                JUNCTION     0.00     0.00    15.89     0  00:00        0.00
  10076                JUNCTION     0.00     0.00    20.09     0  00:00        0.00
  10077                JUNCTION     0.00     0.00    22.90     0  00:00        0.00
  10078                JUNCTION     0.00     0.00     3.68     0  00:00        0.00
  10079                JUNCTION     0.00     0.00    16.21     0  00:00        0.00
  10080                JUNCTION     0.00     0.00    15.30     0  00:00        0.00
  10081                JUNCTION     0.00     0.00    13.48     0  00:00        0.00
  10082                JUNCTION     0.00     0.00    22.67     0  00:00        0.00
  10083                JUNCTION     0.00     0.00    20.13     0  00:00        0.00
  10084                JUNCTION     0.00     0.00    18.96     0  00:00        0.00
  10085                JUNCTION     0.00     0.00    19.26     0  00:00        0.00
  10086                JUNCTION     0.00     0.00    27.49     0  00:00        0.00
  10087                JUNCTION     0.00     0.00    25.88     0  00:00        0.00
  10088                JUNCTION     0.00     0.00     8.67     0  00:00        0.00
  10089                JUNCTION     0.00     0.00    13.51     0  00:00        0.00
  10090                JUNCTION     0.00     0.00    20.17     0  00:00        0.00
  10091                JUNCTION     0.00     0.00    19.35     0  00:00        0.00
  10092                JUNCTION     0.00     0.00    18.95     0  00:00        0.00
  10093                JUNCTION     0.00     0.00    11.75     0  00:00        0.00
  10094                JUNCTION     0.00     0.00    10.40     0  00:00        0.00
  10095                JUNCTION     0.00     0.00    10.50     0  00:00        0.00
  10096                JUNCTION     0.00     0.00    16.82     0  00:00        0.00
  10097                JUNCTION     0.00     0.00     7.59     0  00:00        0.00
  10098                JUNCTION     0.00     0.00     7.03     0  00:00        0.00
  10099                JUNCTION     0.00     0.00     6.30     0  00:00        0.00
  10100                JUNCTION     0.00     0.00     5.86     0  00:00        0.00
  10101                JUNCTION     0.00     0.00     4.81     0  00:00        0.00
  10102                JUNCTION     0.00     0.00     5.32     0  00:00        0.00
  10103                JUNCTION     0.00     0.00     4.60     0  00:00        0.00
  10104                JUNCTION     0.00     0.00     4.36     0  00:00        0.00
  10105                JUNCTION     0.00     0.00     4.14     0  00:00        0.00
  10106                JUNCTION     0.00     0.00    28.81     0  00:00        0.00
  10107                JUNCTION     0.00     0.00    35.53     0  00:00        0.00
  10108                JUNCTION     0.00     0.00    24.00     0  00:00        0.00
  10109                JUNCTION     0.00     0.00    23.04     0  00:00        0.00
  10110                JUNCTION     0.00     0.00    19.53     0  00:00        0.00
  10111                JUNCTION     0.00     0.00    22.22     0  00:00        0.00
  10112                JUNCTION     0.00     0.00    12.83     0  00:00        0.00
  10113                JUNCTION     0.00     0.00     8.18     0  00:00        0.00
  10114                JUNCTION     0.00     0.00     7.95     0  00:00        0.00
  10115                JUNCTION     0.00     0.00     7.89     0  00:00        0.00
  10116                JUNCTION     0.00     0.00     7.43     0  00:00        0.00
  10117                JUNCTION     0.00     0.00     3.13     0  00:00        0.00
  10118                JUNCTION     0.00     0.00     9.46     0  00:00        0.00
  10119                JUNCTION     0.00     0.00     8.26     0  00:00        0.00
  10120                JUNCTION     0.00     0.00     8.48     0  00:00        0.00
  10121                JUNCTION     0.00     0.00     8.62     0  00:00        0.00
  10122                JUNCTION     0.00     0.00     9.46     0  00:00        0.00
  10123                JUNCTION     0.00     0.00    11.36     0  00:00        0.00
  10124                JUNCTION     0.00     0.00    11.68     0  00:00        0.00
  10125                JUNCTION     0.00     0.00    12.20     0  00:00        0.00
  10126                JUNCTION     0.00     0.00    15.50     0  00:00        0.00
  10127                JUNCTION     0.00     0.00    15.75     0  00:00        0.00
  10128                JUNCTION     0.00     0.00    24.60     0  00:00        0.00
  10129                JUNCTION     0.00     0.00    27.71     0  00:00        0.00
  10130                JUNCTION     0.00     0.00    24.18     0  00:00        0.00
  10131                JUNCTION     0.00     0.00    26.59     0  00:00        0.00
  10132                JUNCTION     0.00     0.00    30.39     0  00:00        0.00
  10133                JUNCTION     0.00     0.00    15.69     0  00:00        0.00
  10134                JUNCTION     0.00     0.00    12.55     0  00:00        0.00
  10135                JUNCTION     0.00     0.00     6.34     0  00:00        0.00
  10136                JUNCTION     0.00     0.00     9.97     0  00:00        0.00
  10137                JUNCTION     0.00     0.00     5.99     0  00:00        0.00
  10138                JUNCTION     0.00     0.00     8.24     0  00:00        0.00
  10139                JUNCTION     0.00     0.00    13.48     0  00:00        0.00
  10140                JUNCTION     0.00     0.00     5.64     0  00:00        0.00
  10141                JUNCTION     0.00     0.00     3.27     0  00:00        0.00
  10142                JUNCTION     0.00     0.00     2.66     0  00:00        0.00
  10143                JUNCTION     0.00     0.00     5.56     0  00:00        0.00
  10144                JUNCTION     0.00     0.00     3.09     0  00:00        0.00
  10145                JUNCTION     0.00     0.00     5.79     0  00:00        0.00
  10146                JUNCTION     0.00     0.00     2.45     0  00:00        0.00
  10147                JUNCTION     0.00     0.00     2.25     0  00:00        0.00
  10148                JUNCTION     0.02     0.03     2.03     0  17:00        0.03
  10149                JUNCTION     0.00     0.00     8.80     0  00:00        0.00
  10150                JUNCTION     0.00     0.00    10.83     0  00:00        0.00
  10151                JUNCTION     0.00     0.00    14.12     0  00:00        0.00
  10152                JUNCTION     0.00     0.00    17.59     0  00:00        0.00
  10153                JUNCTION     0.00     0.00    15.06     0  00:00        0.00
  10154                JUNCTION     0.00     0.00     7.26     0  00:00        0.00
  10155                JUNCTION     0.00     0.00    11.05     0  00:00        0.00
  10156                JUNCTION     0.00     0.00     2.54     0  00:00        0.00
  10157                JUNCTION     0.00     0.00     3.02     0  00:00        0.00
  10158                JUNCTION     0.00     0.00     3.51     0  00:00        0.00
  10159                JUNCTION     0.00     0.00     9.77     0  00:00        0.00
  10160                JUNCTION     0.00     0.00    13.95     0  00:00        0.00
  10161                JUNCTION     0.00     0.00     5.32     0  00:00        0.00
  10162                JUNCTION     0.00     0.00     8.71     0  00:00        0.00
  10163                JUNCTION     0.00     0.00    10.25     0  00:00        0.00
  10164                JUNCTION     0.00     0.00    19.93     0  00:00        0.00
  10165                JUNCTION     0.00     0.00    10.89     0  00:00        0.00
  10166                JUNCTION     0.00     0.00    12.10     0  00:00        0.00
  10167                JUNCTION     0.00     0.00    14.35     0  00:00        0.00
  10168                JUNCTION     0.00     0.00    19.83     0  00:00        0.00
  10169                JUNCTION     0.00     0.00    13.73     0  00:00        0.00
  10170                JUNCTION     0.00     0.00    18.75     0  00:00        0.00
  10171                JUNCTION     0.00     0.00    20.97     0  00:00        0.00
  10172                JUNCTION     0.00     0.00    23.39     0  00:00        0.00
  10173                JUNCTION     0.00     0.00    29.02     0  00:00        0.00
  10174                JUNCTION     0.00     0.00    16.48     0  00:00        0.00
  10175                JUNCTION     0.00     0.00    20.60     0  00:00        0.00
  10176                JUNCTION     0.00     0.00    29.80     0  00:00        0.00
  10177                JUNCTION     0.00     0.00    31.39     0  00:00        0.00
  10178                JUNCTION     0.00     0.00    16.64     0  00:00        0.00
  10179                JUNCTION     0.00     0.00    17.00     0  00:00        0.00
  10180                JUNCTION     0.00     0.00    22.82     0  00:00        0.00
  10181                JUNCTION     0.00     0.00    22.93     0  00:00        0.00
  10182                JUNCTION     0.00     0.00    23.27     0  00:00        0.00
  10183                JUNCTION     0.00     0.00    23.51     0  00:00        0.00
  10184                JUNCTION     0.00     0.00    21.70     0  00:00        0.00
  10185                JUNCTION     0.00     0.00    21.48     0  00:00        0.00
  10186                JUNCTION     0.00     0.00    31.32     0  00:00        0.00
  10187                JUNCTION     0.00     0.00    21.16     0  00:00        0.00
  10188                JUNCTION     0.00     0.00    20.75     0  00:00        0.00
  10189                JUNCTION     0.00     0.00    20.34     0  00:00        0.00
  10190                JUNCTION     0.00     0.00    19.84     0  00:00        0.00
  10191                JUNCTION     0.00     0.00    19.45     0  00:00        0.00
  10192                JUNCTION     0.00     0.00    16.75     0  00:00        0.00
  10193                JUNCTION     0.00     0.00    17.86     0  00:00        0.00
  10194                JUNCTION     0.00     0.00    18.93     0  00:00        0.00
  10195                JUNCTION     0.00     0.00    19.11     0  00:00        0.00
  10196                JUNCTION     0.00     0.00    36.74     0  00:00        0.00
  10197                JUNCTION     0.00     0.00    30.56     0  00:00        0.00
  10198                JUNCTION     0.00     0.00    33.92     0  00:00        0.00
  10199                JUNCTION     0.00     0.00    14.52     0  00:00        0.00
  10200                JUNCTION     0.00     0.00    15.35     0  00:00        0.00
  10201                JUNCTION     0.00     0.00    16.96     0  00:00        0.00
  10202                JUNCTION     0.00     0.00    17.19     0  00:00        0.00
  10203                JUNCTION     0.00     0.00    17.98     0  00:00        0.00
  10204                JUNCTION     0.00     0.00     4.83     0  00:00        0.00
  10205                JUNCTION     0.00     0.00    12.40     0  00:00        0.00
  10206                JUNCTION     0.00     0.00    13.09     0  00:00        0.00
  10207                JUNCTION     0.00     0.00    17.23     0  00:00        0.00
  10208                JUNCTION     0.03     0.18    14.82     0  16:14        0.18
  10209                JUNCTION     0.02     0.12    14.13     0  12:28        0.12
  10210                JUNCTION     0.04     0.18    14.38     0  16:15        0.18
  10211                JUNCTION     0.03     0.14    14.29     0  16:15        0.14
  10212                JUNCTION     0.00     0.00    16.65     0  00:00        0.00
  10213                JUNCTION     0.00     0.00    17.33     0  00:00        0.00
  10214                JUNCTION     0.00     0.00    24.60     0  00:00        0.00
  10215                JUNCTION     0.00     0.00    20.59     0  00:00        0.00
  10216                JUNCTION     0.00     0.00    18.59     0  00:00        0.00
  10217                JUNCTION     0.00     0.00    15.57     0  00:00        0.00
  10218                JUNCTION     0.00     0.00    19.10     0  00:00        0.00
  10219                JUNCTION     0.00     0.00     9.96     0  00:00        0.00
  10220                JUNCTION     0.00     0.00    10.89     0  00:00        0.00
  10221                JUNCTION     0.00     0.00     4.44     0  00:00        0.00
  10222                JUNCTION     0.00     0.00     3.55     0  00:00        0.00
  10223                JUNCTION     0.00     0.00     1.40     0  00:00        0.00
  10224                JUNCTION     0.00     0.00     1.60     0  00:00        0.00
  10225                JUNCTION     0.00     0.00     6.54     0  00:00        0.00
  10226                JUNCTION     0.00     0.00     3.03     0  00:00        0.00
  10227                JUNCTION     0.00     0.00     2.59     0  00:00        0.00
  10229                JUNCTION     0.00     0.00     3.02     0  00:00        0.00
  10230                JUNCTION     0.00     0.00     2.87     0  00:00        0.00
  10231                JUNCTION     0.00     0.00     2.54     0  00:00        0.00
  10232                JUNCTION     0.00     0.00     2.25     0  00:00        0.00
  10233                JUNCTION     0.00     0.00     2.95     0  00:00        0.00
  10234                JUNCTION     0.00     0.00    16.93     0  00:00        0.00
  10235                JUNCTION     0.00     0.00    12.00     0  00:00        0.00
  10236                JUNCTION     0.00     0.00     9.70     0  00:00        0.00
  10237                JUNCTION     0.00     0.00    -0.88     0  00:00        0.00
  10238                JUNCTION     0.00     0.00     1.87     0  00:00        0.00
  10239                JUNCTION     0.00     0.00     1.13     0  00:00        0.00
  10240                JUNCTION     0.00     0.00     2.96     0  00:00        0.00
  10242                JUNCTION     0.09     0.21     6.13     0  12:04        0.21
  10243                JUNCTION     0.00     0.00     4.10     0  00:00        0.00
  10244                JUNCTION     0.00     0.00     6.20     0  00:00        0.00
  10245                JUNCTION     0.00     0.00     6.40     0  00:00        0.00
  10246                JUNCTION     0.00     0.00     3.97     0  00:00        0.00
  10247                JUNCTION     0.00     0.00    10.75     0  00:00        0.00
  10248                JUNCTION     0.00     0.00    12.13     0  00:00        0.00
  10249                JUNCTION     0.00     0.00     4.06     0  00:00        0.00
  10251                JUNCTION     0.00     0.00     2.11     0  00:00        0.00
  10252                JUNCTION     0.00     0.00     1.76     0  00:00        0.00
  10253                JUNCTION     0.02     0.08     3.26     0  07:29        0.08
  10254                JUNCTION     0.00     0.00     4.79     0  00:00        0.00
  10255                JUNCTION     0.00     0.00     6.02     0  00:00        0.00
  10256                JUNCTION     0.00     0.00    16.82     0  00:00        0.00
  10257                JUNCTION     0.00     0.00    14.11     0  00:00        0.00
  10258                JUNCTION     0.00     0.00    12.14     0  00:00        0.00
  10259                JUNCTION     0.00     0.00    20.23     0  00:00        0.00
  10260                JUNCTION     0.00     0.00    20.34     0  00:00        0.00
  10262                JUNCTION     0.00     0.00    13.51     0  00:00        0.00
  10263                JUNCTION     0.00     0.00    15.14     0  00:00        0.00
  10265                JUNCTION     0.00     0.00    11.80     0  00:00        0.00
  10266                JUNCTION     0.05     0.08    10.19     0  04:21        0.08
  10268                JUNCTION     0.00     0.00     3.75     0  00:00        0.00
  10269                JUNCTION     0.00     0.00     5.92     0  00:00        0.00
  10270                JUNCTION     0.04     0.04    -0.75     0  00:28        0.04
  10271                JUNCTION     0.00     0.00    11.14     0  00:00        0.00
  10272                JUNCTION     0.00     0.00    12.39     0  00:00        0.00
  10273                JUNCTION     0.03     0.04     2.61     0  03:44        0.04
  10274                JUNCTION     0.03     0.04     1.93     0  03:46        0.04
  10275                JUNCTION     0.00     0.00    -0.22     0  00:00        0.00
  10276                JUNCTION     0.00     0.00     1.46     0  00:00        0.00
  10277                JUNCTION     0.00     0.00     3.00     0  00:00        0.00
  10278                JUNCTION     0.00     0.00     6.00     0  00:00        0.00
  10279                JUNCTION     0.00     0.00    -0.87     0  00:00        0.00
  10280                JUNCTION     0.00     0.00     1.64     0  00:00        0.00
  10281                JUNCTION     0.00     0.00     1.90     0  00:00        0.00
  10282                JUNCTION     0.00     0.00    20.03     0  00:00        0.00
  10283                JUNCTION     0.00     0.00    19.25     0  00:00        0.00
  10284                JUNCTION     0.00     0.00    20.12     0  00:00        0.00
  10285                JUNCTION     0.00     0.00    22.60     0  00:00        0.00
  10286                JUNCTION     0.00     0.00    24.52     0  00:00        0.00
  10287                JUNCTION     0.00     0.00     0.92     0  00:00        0.00
  10288                JUNCTION     0.00     0.00     1.14     0  00:00        0.00
  10289                JUNCTION     0.00     0.00     1.33     0  00:00        0.00
  10290                JUNCTION     0.06     0.07     7.85     0  04:35        0.07
  10291                JUNCTION     0.00     0.00     1.53     0  00:00        0.00
  10292                JUNCTION     0.00     0.00     1.20     0  00:00        0.00
  10293                JUNCTION     0.00     0.00     0.49     0  00:00        0.00
  10294                JUNCTION     0.00     0.00     0.33     0  00:00        0.00
  10295                JUNCTION     0.00     0.00     0.79     0  00:00        0.00
  10296                JUNCTION     0.00     0.00     1.51     0  00:00        0.00
  10297                JUNCTION     0.00     0.00     3.01     0  00:00        0.00
  10298                JUNCTION     0.00     0.00     2.45     0  00:00        0.00
  10299                JUNCTION     0.00     0.00     1.73     0  00:00        0.00
  10300                JUNCTION     0.00     0.00     8.53     0  00:00        0.00
  10301                JUNCTION     0.00     0.00     7.86     0  00:00        0.00
  10302                JUNCTION     0.00     0.00     8.18     0  00:00        0.00
  10303                JUNCTION     0.00     0.00    11.94     0  00:00        0.00
  10304                JUNCTION     0.00     0.00     8.39     0  00:00        0.00
  10305                JUNCTION     0.00     0.00     8.59     0  00:00        0.00
  10306                JUNCTION     0.00     0.00     9.42     0  00:00        0.00
  10307                JUNCTION     0.00     0.00    15.76     0  00:00        0.00
  10308                JUNCTION     0.00     0.00    17.67     0  00:00        0.00
  10309                JUNCTION     0.00     0.00    16.78     0  00:00        0.00
  10310                JUNCTION     0.00     0.00    11.55     0  00:00        0.00
  10311                JUNCTION     0.00     0.00    14.29     0  00:00        0.00
  10312                JUNCTION     0.00     0.00     4.76     0  00:00        0.00
  10313                JUNCTION     0.00     0.00     5.08     0  00:00        0.00
  10314                JUNCTION     0.00     0.00     3.41     0  00:00        0.00
  10315                JUNCTION     0.00     0.00     7.38     0  00:00        0.00
  10316                JUNCTION     0.00     0.00     7.28     0  00:00        0.00
  10317                JUNCTION     0.00     0.00     7.17     0  00:00        0.00
  10318                JUNCTION     0.00     0.00    11.90     0  00:00        0.00
  10319                JUNCTION     0.00     0.00    14.00     0  00:00        0.00
  10320                JUNCTION     0.00     0.00    12.20     0  00:00        0.00
  10321                JUNCTION     0.00     0.00    12.85     0  00:00        0.00
  10322                JUNCTION     0.00     0.00     8.10     0  00:00        0.00
  10323                JUNCTION     0.00     0.00     4.57     0  00:00        0.00
  10324                JUNCTION     0.00     0.00     2.29     0  00:00        0.00
  10325                JUNCTION     0.00     0.00     1.34     0  00:00        0.00
  10326                JUNCTION     0.00     0.00     1.27     0  00:00        0.00
  10327                JUNCTION     0.00     0.00     0.50     0  00:00        0.00
  10328                JUNCTION     0.00     0.00     0.15     0  00:00        0.00
  10329                JUNCTION     0.00     0.00    -0.10     0  00:00        0.00
  10330                JUNCTION     0.00     0.00     2.50     0  00:00        0.00
  10331                JUNCTION     0.00     0.00    -0.46     0  00:00        0.00
  10332                JUNCTION     0.00     0.00    -0.68     0  00:00        0.00
  10333                JUNCTION     0.00     0.00    -1.01     0  00:00        0.00
  10334                JUNCTION     0.05     0.05    -1.54     0  00:20        0.05
  10335                JUNCTION     0.10     0.46     7.04     0  00:00        0.39
  10336                JUNCTION     0.10     1.33     7.96     0  00:00        0.32
  10337                JUNCTION     0.00     0.18     7.15     0  00:01        0.18
  10338                JUNCTION     0.00     0.00     3.76     0  00:00        0.00
  10339                JUNCTION     0.00     0.00     3.30     0  00:00        0.00
  10340                JUNCTION     0.00     0.00    16.20     0  00:00        0.00
  10341                JUNCTION     0.00     0.00    20.25     0  00:00        0.00
  10342                JUNCTION     0.00     0.00    21.00     0  00:00        0.00
  10343                JUNCTION     0.07     0.32     6.85     0  00:01        0.29
  10344                JUNCTION     0.00     0.00     7.33     0  00:00        0.00
  10345                JUNCTION     0.11     0.33     6.73     0  00:02        0.33
  10346                JUNCTION     0.00     0.00    12.45     0  00:00        0.00
  10347                JUNCTION     0.00     0.00    16.50     0  00:00        0.00
  10348                JUNCTION     0.10     0.26     6.64     0  21:57        0.26
  10349                JUNCTION     0.09     0.24     6.54     0  21:58        0.24
  10350                JUNCTION     0.00     0.00     2.72     0  00:00        0.00
  10351                JUNCTION     0.00     0.00    12.15     0  00:00        0.00
  10352                JUNCTION     0.00     0.00    10.90     0  00:00        0.00
  10353                JUNCTION     0.00     0.00    11.25     0  00:00        0.00
  10354                JUNCTION     0.05     0.32     7.20     0  00:01        0.32
  10355                JUNCTION     0.04     0.18     7.27     0  21:52        0.18
  10356                JUNCTION     0.00     0.00    10.83     0  00:00        0.00
  10357                JUNCTION     0.00     0.00    13.00     0  00:00        0.00
  10358                JUNCTION     0.00     0.00    13.25     0  00:00        0.00
  10359                JUNCTION     0.08     0.30     7.42     0  21:51        0.30
  10360                JUNCTION     0.08     0.35     7.50     0  21:51        0.35
  10361                JUNCTION     0.07     0.16     7.51     0  21:50        0.16
  10362                JUNCTION     0.04     0.06     7.59     0  04:36        0.06
  10363                JUNCTION     0.06     0.08     7.69     0  04:35        0.08
  10364                JUNCTION     0.00     0.00     7.30     0  00:00        0.00
  10365                JUNCTION     0.00     0.00     7.10     0  00:00        0.00
  10366                JUNCTION     0.00     0.00     6.80     0  00:00        0.00
  10367                JUNCTION     0.09     0.22     6.21     0  22:03        0.22
  10368                JUNCTION     0.08     0.20     6.30     0  22:02        0.20
  10369                JUNCTION     0.14     0.29     6.35     0  22:02        0.29
  10370                JUNCTION     0.09     0.25     6.39     0  22:01        0.25
  10371                JUNCTION     0.10     0.27     6.47     0  22:00        0.27
  10372                JUNCTION     0.10     0.26     6.48     0  21:59        0.26
  10373                JUNCTION     0.00     0.00     8.10     0  00:00        0.00
  10374                JUNCTION     0.00     0.00     9.40     0  00:00        0.00
  10375                JUNCTION     0.00     0.00    -0.06     0  00:00        0.00
  10376                JUNCTION     0.00     0.00     0.53     0  00:00        0.00
  10377                JUNCTION     0.00     0.00     0.77     0  00:00        0.00
  10378                JUNCTION     0.00     0.00     0.92     0  00:00        0.00
  10379                JUNCTION     0.00     0.00     7.04     0  00:00        0.00
  10380                JUNCTION     0.00     0.00     9.09     0  00:00        0.00
  10381                JUNCTION     0.00     0.00    11.14     0  00:00        0.00
  10382                JUNCTION     0.00     0.00    17.00     0  00:00        0.00
  10383                JUNCTION     0.00     0.00     1.42     0  00:00        0.00
  10384                JUNCTION     0.00     0.00     1.70     0  00:00        0.00
  10385                JUNCTION     0.00     0.00     1.95     0  00:00        0.00
  10386                JUNCTION     0.00     0.00     2.38     0  00:00        0.00
  10388                JUNCTION     0.00     0.00     5.18     0  00:00        0.00
  10389                JUNCTION     0.00     0.00     7.18     0  00:00        0.00
  10390                JUNCTION     0.00     0.00     7.78     0  00:00        0.00
  10391                JUNCTION     0.00     0.00     9.98     0  00:00        0.00
  10392                JUNCTION     0.00     0.00     5.94     0  00:00        0.00
  10393                JUNCTION     0.00     0.00     9.10     0  00:00        0.00
  10394                JUNCTION     0.00     0.00    11.02     0  00:00        0.00
  10395                JUNCTION     0.00     0.00    15.33     0  00:00        0.00
  10396                JUNCTION     0.00     0.00     8.01     0  00:00        0.00
  10397                JUNCTION     0.00     0.00     9.68     0  00:00        0.00
  10398                JUNCTION     0.00     0.00    15.14     0  00:00        0.00
  10399                JUNCTION     0.00     0.00    20.96     0  00:00        0.00
  10400                JUNCTION     0.08     0.31    -1.66     0  06:34        0.31
  10401                JUNCTION     0.00     0.00    -1.62     0  00:00        0.00
  10402                JUNCTION     0.00     0.00    -1.48     0  00:00        0.00
  10403                JUNCTION     0.00     0.00     6.24     0  00:00        0.00
  10404                JUNCTION     0.00     0.00     7.84     0  00:00        0.00
  10405                JUNCTION     0.00     0.00    -0.18     0  00:00        0.00
  10406                JUNCTION     0.00     0.00     0.00     0  00:00        0.00
  10407                JUNCTION     0.00     0.00     0.23     0  00:00        0.00
  10408                JUNCTION     0.00     0.00     0.65     0  00:00        0.00
  10409                JUNCTION     0.00     0.00     0.91     0  00:00        0.00
  10410                JUNCTION     0.00     0.00     1.16     0  00:00        0.00
  10411                JUNCTION     0.00     0.00     1.47     0  00:00        0.00
  10412                JUNCTION     0.00     0.00     1.96     0  00:00        0.00
  10413                JUNCTION     0.00     0.00     3.03     0  00:00        0.00
  10414                JUNCTION     0.00     0.00     6.37     0  00:00        0.00
  10415                JUNCTION     0.00     0.00     5.02     0  00:00        0.00
  10416                JUNCTION     0.00     0.00    10.87     0  00:00        0.00
  10417                JUNCTION     0.00     0.00    15.97     0  00:00        0.00
  10418                JUNCTION     0.00     0.00    18.90     0  00:00        0.00
  10419                JUNCTION     0.00     0.00     3.12     0  00:00        0.00
  10447                JUNCTION     0.00     0.00    11.70     0  00:00        0.00
  10572                JUNCTION     0.00     0.00     3.57     0  00:00        0.00
  10573                JUNCTION     0.00     0.00     4.97     0  00:00        0.00
  10616                JUNCTION     0.70     2.32     1.58     0  19:51        2.30
  10617                JUNCTION     0.00     0.00     2.99     0  00:00        0.00
  10618                JUNCTION     0.08     0.14     2.86     0  00:34        0.14
  10619                JUNCTION     0.06     0.10     2.49     0  00:35        0.10
  10620                JUNCTION     0.00     0.00     4.42     0  00:00        0.00
  10621                JUNCTION     0.07     0.11     1.41     0  06:52        0.11
  10622                JUNCTION     0.01     0.05     3.29     0  00:03        0.05
  10643                JUNCTION     0.00     0.00     5.42     0  00:00        0.00
  10790                JUNCTION     0.00     0.00    17.68     0  00:00        0.00
  10887                JUNCTION     0.03     0.12    13.88     0  03:59        0.11
  10888                JUNCTION     0.02     0.13    14.56     0  16:14        0.13
  10890                JUNCTION     0.00     0.00    31.58     0  00:00        0.00
  10961                JUNCTION     0.02     0.07     2.80     0  08:03        0.07
  10966                JUNCTION     0.00     0.00    11.40     0  00:00        0.00
  10967                JUNCTION     0.00     0.00    10.18     0  00:00        0.00
  10968                JUNCTION     0.00     0.00     9.45     0  00:00        0.00
  10969                JUNCTION     0.00     0.00     8.51     0  00:00        0.00
  10985                JUNCTION     0.00     0.00     6.26     0  00:00        0.00
  10986                JUNCTION     0.00     0.00     6.60     0  00:00        0.00
  10987                JUNCTION     0.00     0.00     7.14     0  00:00        0.00
  10988                JUNCTION     0.00     0.00     7.47     0  00:00        0.00
  10989                JUNCTION     0.00     0.00     8.83     0  00:00        0.00
  10990                JUNCTION     0.00     0.00     9.08     0  00:00        0.00
  10996                JUNCTION     0.00     0.00    38.06     0  00:00        0.00
  10997                JUNCTION     0.00     0.00    31.44     0  00:00        0.00
  10998                JUNCTION     0.00     0.00    29.72     0  00:00        0.00
  10999                JUNCTION     0.00     0.00    26.90     0  00:00        0.00
  11000                JUNCTION     0.00     0.00    26.74     0  00:00        0.00
  11001                JUNCTION     0.00     0.00    21.56     0  00:00        0.00
  11002                JUNCTION     0.00     0.00    18.62     0  00:00        0.00
  11003                JUNCTION     0.00     0.00    16.93     0  00:00        0.00
  11004                JUNCTION     0.01     0.01    15.74     0  00:44        0.01
  11005                JUNCTION     0.00     0.00    23.39     0  00:00        0.00
  11006                JUNCTION     0.00     0.00    26.63     0  00:00        0.00
  11007                JUNCTION     0.00     0.00    29.04     0  00:00        0.00
  11113                JUNCTION     0.00     0.00     0.05     0  00:00        0.00
  11114                JUNCTION     0.00     0.00     0.24     0  00:00        0.00
  1112                 JUNCTION     0.00     0.00    18.30     0  00:00        0.00
  11136                JUNCTION     0.01     0.01    -0.40     0  00:32        0.01
  11162                JUNCTION     0.00     0.00     2.20     0  00:00        0.00
  11163                JUNCTION     0.00     0.00     2.67     0  00:00        0.00
  11164                JUNCTION     0.00     0.00     3.10     0  00:00        0.00
  11165                JUNCTION     0.00     0.00     3.24     0  00:00        0.00
  11166                JUNCTION     0.00     0.00     3.33     0  00:00        0.00
  11167                JUNCTION     0.00     0.00     3.43     0  00:00        0.00
  11168                JUNCTION     0.01     0.05     1.82     0  15:37        0.05
  11169                JUNCTION     0.01     0.09     2.96     0  15:33        0.09
  11170                JUNCTION     0.01     0.06     2.06     0  15:34        0.06
  11232                JUNCTION     0.00     0.00     4.30     0  00:00        0.00
  11233                JUNCTION     0.00     0.00     3.92     0  00:00        0.00
  11369                JUNCTION     0.00     0.00    22.08     0  00:00        0.00
  11370                JUNCTION     0.00     0.00    10.61     0  00:00        0.00
  11396                JUNCTION     0.04     0.11     4.26     0  00:02        0.11
  11397                JUNCTION     0.07     0.17     2.95     0  00:33        0.17
  11398                JUNCTION     0.07     0.20     3.17     0  00:03        0.19
  11399                JUNCTION     0.00     0.00     3.40     0  00:00        0.00
  11400                JUNCTION     0.00     0.04     2.80     0  15:33        0.04
  11401                JUNCTION     0.00     0.00     3.22     0  00:00        0.00
  11402                JUNCTION     0.00     0.00     2.46     0  00:00        0.00
  11403                JUNCTION     0.00     0.00     1.68     0  00:00        0.00
  11404                JUNCTION     0.00     0.00     2.18     0  00:00        0.00
  11405                JUNCTION     0.00     0.00     2.87     0  00:00        0.00
  11406                JUNCTION     0.00     0.00     1.31     0  00:00        0.00
  11428                JUNCTION     0.00     0.00     2.26     0  00:00        0.00
  11429                JUNCTION     0.00     0.00     6.38     0  00:00        0.00
  11430                JUNCTION     0.00     0.00     9.84     0  00:00        0.00
  11431                JUNCTION     0.00     0.00    23.48     0  00:00        0.00
  11432                JUNCTION     0.00     0.00    14.79     0  00:00        0.00
  11475                JUNCTION     0.00     0.00    11.87     0  00:00        0.00
  11476                JUNCTION     0.00     0.00    17.72     0  00:00        0.00
  11477                JUNCTION     0.00     0.00    13.01     0  00:00        0.00
  11478                JUNCTION     0.00     0.00    12.64     0  00:00        0.00
  11479                JUNCTION     0.00     0.00    15.31     0  00:00        0.00
  11480                JUNCTION     0.00     0.00    23.61     0  00:00        0.00
  11481                JUNCTION     0.00     0.00     1.06     0  00:00        0.00
  11482                JUNCTION     0.00     0.00     0.76     0  00:00        0.00
  11483                JUNCTION     0.00     0.00     5.09     0  00:00        0.00
  11484                JUNCTION     0.00     0.00     2.47     0  00:00        0.00
  11485                JUNCTION     0.00     0.00     1.67     0  00:00        0.00
  11486                JUNCTION     0.00     0.00     2.28     0  00:00        0.00
  11487                JUNCTION     0.00     0.00     3.42     0  00:00        0.00
  11488                JUNCTION     0.00     0.00    47.00     0  00:00        0.00
  11489                JUNCTION     0.00     0.00    21.75     0  00:00        0.00
  11490                JUNCTION     0.00     0.00    30.80     0  00:00        0.00
  11491                JUNCTION     0.00     0.00    31.30     0  00:00        0.00
  11529                JUNCTION     0.00     0.00     0.47     0  00:00        0.00
  11530                JUNCTION     0.00     0.00     1.12     0  00:00        0.00
  11531                JUNCTION     0.00     0.00    28.94     0  00:00        0.00
  11532                JUNCTION     0.00     0.00    29.75     0  00:00        0.00
  11533                JUNCTION     0.00     0.00    16.16     0  00:00        0.00
  11534                JUNCTION     0.00     0.00    28.75     0  00:00        0.00
  11535                JUNCTION     0.00     0.00    17.86     0  00:00        0.00
  11536                JUNCTION     0.00     0.00    18.42     0  00:00        0.00
  11537                JUNCTION     0.00     0.00    20.99     0  00:00        0.00
  11538                JUNCTION     0.00     0.00    23.01     0  00:00        0.00
  11543                JUNCTION     0.04     0.08    -0.11     0  00:59        0.08
  11576                JUNCTION     0.00     0.00     6.56     0  00:00        0.00
  11577                JUNCTION     0.00     0.00     7.75     0  00:00        0.00
  11578                JUNCTION     0.00     0.00     6.56     0  00:00        0.00
  11579                JUNCTION     0.00     0.00     6.47     0  00:00        0.00
  11580                JUNCTION     0.00     0.00     6.20     0  00:00        0.00
  11581                JUNCTION     0.00     0.00    12.51     0  00:00        0.00
  11582                JUNCTION     0.00     0.00    25.58     0  00:00        0.00
  11738                JUNCTION     0.00     0.00    13.72     0  00:00        0.00
  11739                JUNCTION     0.00     0.00    17.05     0  00:00        0.00
  11740                JUNCTION     0.00     0.00    12.68     0  00:00        0.00
  11800                JUNCTION     0.00     0.00     9.38     0  00:00        0.00
  11801                JUNCTION     0.00     0.00    11.85     0  00:00        0.00
  11802                JUNCTION     0.00     0.00    23.38     0  00:00        0.00
  11803                JUNCTION     0.00     0.00    16.09     0  00:00        0.00
  11804                JUNCTION     0.00     0.00    35.60     0  00:00        0.00
  11805                JUNCTION     0.00     0.00     4.59     0  00:00        0.00
  11806                JUNCTION     0.00     0.00     5.78     0  00:00        0.00
  11807                JUNCTION     0.00     0.00     4.45     0  00:00        0.00
  11808                JUNCTION     0.00     0.00     9.66     0  00:00        0.00
  11893                JUNCTION     0.02     0.10     2.75     0  19:34        0.10
  11894                JUNCTION     0.00     0.00     3.34     0  00:00        0.00
  12003                JUNCTION     0.00     0.00    -0.26     0  00:00        0.00
  12004                JUNCTION     0.00     0.00     0.02     0  00:00        0.00
  12040                JUNCTION     0.00     0.17    13.94     0  00:01        0.16
  12041                JUNCTION     0.00     0.11    13.96     0  00:01        0.10
  12077                JUNCTION     0.00     0.00     8.85     0  00:00        0.00
  12078                JUNCTION     0.00     0.00    36.57     0  00:00        0.00
  12080                JUNCTION     0.00     0.00    22.93     0  00:00        0.00
  12185                JUNCTION     0.00     0.00     2.63     0  00:00        0.00
  12186                JUNCTION     0.00     0.00     3.05     0  00:00        0.00
  12187                JUNCTION     0.00     0.00     3.64     0  00:00        0.00
  12196                JUNCTION     0.04     0.10     0.78     0  00:57        0.10
  12197                JUNCTION     0.03     0.07     1.95     0  00:54        0.07
  12198                JUNCTION     0.04     0.11    -0.90     0  01:01        0.11
  12199                JUNCTION     0.00     0.00    16.90     0  00:00        0.00
  12200                JUNCTION     0.00     0.00     3.56     0  00:00        0.00
  12201                JUNCTION     0.00     0.00     3.99     0  00:00        0.00
  12202                JUNCTION     0.01     0.03     7.82     0  01:01        0.03
  12264                JUNCTION     0.00     0.00    -0.10     0  00:00        0.00
  12294                JUNCTION     0.00     0.00     9.96     0  00:00        0.00
  12295                JUNCTION     0.00     0.00    11.06     0  00:00        0.00
  12296                JUNCTION     0.00     0.00    24.95     0  00:00        0.00
  12297                JUNCTION     0.00     0.00    27.34     0  00:00        0.00
  12298                JUNCTION     0.00     0.00     8.10     0  00:00        0.00
  12299                JUNCTION     0.00     0.00     7.59     0  00:00        0.00
  12300                JUNCTION     0.00     0.00     7.69     0  00:00        0.00
  12301                JUNCTION     0.00     0.00     2.72     0  00:00        0.00
  12302                JUNCTION     0.00     0.00     2.75     0  00:00        0.00
  12303                JUNCTION     0.00     0.00     3.07     0  00:00        0.00
  12304                JUNCTION     0.00     0.00    18.10     0  00:00        0.00
  12358                JUNCTION     0.00     0.00     6.07     0  00:00        0.00
  12359                JUNCTION     0.00     0.00     4.07     0  00:00        0.00
  12360                JUNCTION     0.00     0.00     4.53     0  00:00        0.00
  12361                JUNCTION     0.00     0.00    15.15     0  00:00        0.00
  12362                JUNCTION     0.00     0.00    12.14     0  00:00        0.00
  12363                JUNCTION     0.00     0.00     5.23     0  00:00        0.00
  12364                JUNCTION     0.00     0.00    16.34     0  00:00        0.00
  12365                JUNCTION     0.00     0.00    13.04     0  00:00        0.00
  12366                JUNCTION     0.00     0.00     5.45     0  00:00        0.00
  12367                JUNCTION     0.00     0.00    17.89     0  00:00        0.00
  12368                JUNCTION     0.00     0.00    20.76     0  00:00        0.00
  12436                JUNCTION     0.00     0.00    29.57     0  00:00        0.00
  12437                JUNCTION     0.00     0.00    30.68     0  00:00        0.00
  12438                JUNCTION     0.00     0.00    32.35     0  00:00        0.00
  12439                JUNCTION     0.00     0.00    34.07     0  00:00        0.00
  12443                JUNCTION     0.00     0.00    29.11     0  00:00        0.00
  12444                JUNCTION     0.00     0.00    27.82     0  00:00        0.00
  12445                JUNCTION     0.00     0.00    25.52     0  00:00        0.00
  12446                JUNCTION     0.00     0.00    24.16     0  00:00        0.00
  12447                JUNCTION     0.00     0.00    23.95     0  00:00        0.00
  12448                JUNCTION     0.00     0.00    30.40     0  00:00        0.00
  12449                JUNCTION     0.00     0.00    23.43     0  00:00        0.00
  12450                JUNCTION     0.00     0.00    22.85     0  00:00        0.00
  12451                JUNCTION     0.00     0.00    30.24     0  00:00        0.00
  12452                JUNCTION     0.00     0.00    22.42     0  00:00        0.00
  12453                JUNCTION     0.00     0.00    26.08     0  00:00        0.00
  12454                JUNCTION     0.03     0.07    21.38     0  02:50        0.07
  12455                JUNCTION     0.00     0.00    20.32     0  00:00        0.00
  12456                JUNCTION     0.00     0.00    19.61     0  00:00        0.00
  12457                JUNCTION     0.00     0.00    18.05     0  00:00        0.00
  12458                JUNCTION     0.00     0.00    29.32     0  00:00        0.00
  12459                JUNCTION     0.00     0.00    29.79     0  00:00        0.00
  12460                JUNCTION     0.00     0.00    24.00     0  00:00        0.00
  12461                JUNCTION     0.00     0.00    25.13     0  00:00        0.00
  12462                JUNCTION     0.00     0.00    23.26     0  00:00        0.00
  12463                JUNCTION     0.00     0.00    20.57     0  00:00        0.00
  12464                JUNCTION     0.00     0.00    18.62     0  00:00        0.00
  12465                JUNCTION     0.00     0.00    12.36     0  00:00        0.00
  12466                JUNCTION     0.04     0.08     3.04     0  02:57        0.08
  12467                JUNCTION     0.00     0.00     8.21     0  00:00        0.00
  12468                JUNCTION     0.00     0.00     8.01     0  00:00        0.00
  12469                JUNCTION     0.05     0.10     7.90     0  02:55        0.10
  12470                JUNCTION     0.04     0.11     8.00     0  02:53        0.11
  12471                JUNCTION     0.05     0.10     7.50     0  02:55        0.10
  12472                JUNCTION     0.00     0.00     8.70     0  00:00        0.00
  12473                JUNCTION     0.05     0.10     7.36     0  02:56        0.10
  12474                JUNCTION     0.00     0.00     8.95     0  00:00        0.00
  12475                JUNCTION     0.04     0.07     7.18     0  02:57        0.07
  12476                JUNCTION     0.00     0.00     9.31     0  00:00        0.00
  12477                JUNCTION     0.00     0.00    10.03     0  00:00        0.00
  12478                JUNCTION     0.00     0.00    13.98     0  00:00        0.00
  12479                JUNCTION     0.02     0.06    19.86     0  02:50        0.06
  12480                JUNCTION     0.04     0.09    19.18     0  02:51        0.09
  12481                JUNCTION     0.03     0.07    18.54     0  02:51        0.07
  12482                JUNCTION     0.03     0.06    16.63     0  02:51        0.06
  12483                JUNCTION     0.03     0.06    14.09     0  02:52        0.06
  12484                JUNCTION     0.04     0.09    12.94     0  02:52        0.08
  12485                JUNCTION     0.03     0.06    12.31     0  02:52        0.06
  12486                JUNCTION     0.00     0.00    19.46     0  00:00        0.00
  12487                JUNCTION     0.00     0.00    13.69     0  00:00        0.00
  12488                JUNCTION     0.00     0.00    14.09     0  00:00        0.00
  12489                JUNCTION     0.05     0.08     2.85     0  02:58        0.08
  12565                JUNCTION     0.00     0.00     3.35     0  00:00        0.00
  12613                JUNCTION     0.01     0.05     2.29     0  21:34        0.05
  12672                JUNCTION     0.00     0.00    26.40     0  00:00        0.00
  12682                JUNCTION     0.01     0.08     4.32     0  05:32        0.08
  12683                JUNCTION     0.01     0.06     6.54     0  05:32        0.05
  12684                JUNCTION     0.01     0.08     7.27     0  05:31        0.08
  12685                JUNCTION     0.00     0.00    13.31     0  00:00        0.00
  12686                JUNCTION     0.00     0.00    15.91     0  00:00        0.00
  12687                JUNCTION     0.00     0.00    19.95     0  00:00        0.00
  12688                JUNCTION     0.00     0.00    12.80     0  00:00        0.00
  12689                JUNCTION     0.00     0.00    12.19     0  00:00        0.00
  12690                JUNCTION     0.00     0.00    13.07     0  00:00        0.00
  12691                JUNCTION     0.00     0.00    21.37     0  00:00        0.00
  12692                JUNCTION     0.00     0.00    18.05     0  00:00        0.00
  12693                JUNCTION     0.00     0.00    15.57     0  00:00        0.00
  12694                JUNCTION     0.00     0.00    15.65     0  00:00        0.00
  12695                JUNCTION     0.00     0.00    13.88     0  00:00        0.00
  12696                JUNCTION     0.00     0.00    11.55     0  00:00        0.00
  12697                JUNCTION     0.00     0.00    11.38     0  00:00        0.00
  12698                JUNCTION     0.00     0.00    10.14     0  00:00        0.00
  12699                JUNCTION     0.01     0.02     7.39     0  07:33        0.02
  12700                JUNCTION     0.02     0.02     7.06     0  10:43        0.02
  12701                JUNCTION     0.01     0.01     6.82     0  22:58        0.01
  12702                JUNCTION     0.01     0.01     6.66     0  18:40        0.01
  12703                JUNCTION     0.01     0.01     6.01     0  03:22        0.01
  12704                JUNCTION     0.00     0.00    14.13     0  00:00        0.00
  12705                JUNCTION     0.00     0.00    10.69     0  00:00        0.00
  12706                JUNCTION     0.00     0.00    11.44     0  00:00        0.00
  12707                JUNCTION     0.00     0.00    11.83     0  00:00        0.00
  12708                JUNCTION     0.01     0.09     7.73     0  05:30        0.09
  12709                JUNCTION     0.01     0.09     7.91     0  05:29        0.09
  12710                JUNCTION     0.01     0.09     8.29     0  05:29        0.09
  12711                JUNCTION     0.01     0.10     8.87     0  05:28        0.10
  12712                JUNCTION     0.01     0.12     9.59     0  00:00        0.10
  12713                JUNCTION     0.00     0.00     9.92     0  00:00        0.00
  12714                JUNCTION     0.00     0.00    10.39     0  00:00        0.00
  12716                JUNCTION     0.00     0.00     2.90     0  00:00        0.00
  12717                JUNCTION     0.00     0.00     3.00     0  00:00        0.00
  12740                JUNCTION     0.00     0.00    23.51     0  00:00        0.00
  12752                JUNCTION     0.00     0.00    14.50     0  00:00        0.00
  12753                JUNCTION     0.00     0.00     9.84     0  00:00        0.00
  13015                JUNCTION     0.50     1.70     2.31     0  21:46        1.69
  13016                JUNCTION     0.07     0.41     2.38     0  18:12        0.33
  13017                JUNCTION     0.00     0.00     2.84     0  00:00        0.00
  13018                JUNCTION     0.00     0.00     1.42     0  00:00        0.00
  13019                JUNCTION     0.00     0.00     2.25     0  00:00        0.00
  13020                JUNCTION     0.00     0.00     2.59     0  00:00        0.00
  13074                JUNCTION     0.00     0.00     3.22     0  00:00        0.00
  13075                JUNCTION     0.00     0.00     3.22     0  00:00        0.00
  13076                JUNCTION     0.00     0.00    14.44     0  00:00        0.00
  13077                JUNCTION     0.00     0.00    13.93     0  00:00        0.00
  13078                JUNCTION     0.00     0.00    13.35     0  00:00        0.00
  13079                JUNCTION     0.00     0.00    10.59     0  00:00        0.00
  13080                JUNCTION     0.00     0.00    10.45     0  00:00        0.00
  13081                JUNCTION     0.00     0.00     3.62     0  00:00        0.00
  13145                JUNCTION     0.00     0.00     1.75     0  00:00        0.00
  13146                JUNCTION     0.00     0.00     6.17     0  00:00        0.00
  13149                JUNCTION     0.00     0.00     2.52     0  00:00        0.00
  13150                JUNCTION     0.03     0.08     1.74     0  10:30        0.08
  13158                JUNCTION     0.04     0.08     2.07     0  01:04        0.08
  13159                JUNCTION     0.00     0.00     2.54     0  00:00        0.00
  13160                JUNCTION     0.07     0.14     1.81     0  01:17        0.14
  13161                JUNCTION     0.00     0.00     2.45     0  00:00        0.00
  13162                JUNCTION     0.00     0.00     2.84     0  00:00        0.00
  13163                JUNCTION     0.00     0.00     2.97     0  00:00        0.00
  13164                JUNCTION     0.11     0.30     1.13     0  18:23        0.30
  13165                JUNCTION     0.00     0.00     4.06     0  00:00        0.00
  13166                JUNCTION     0.00     0.00     9.28     0  00:00        0.00
  13168                JUNCTION     0.00     0.00     7.60     0  00:00        0.00
  13169                JUNCTION     0.00     0.00     5.24     0  00:00        0.00
  13171                JUNCTION     0.00     0.00    21.26     0  00:00        0.00
  13208                JUNCTION     0.00     0.00    -0.01     0  00:00        0.00
  13209                JUNCTION     0.00     0.00     2.54     0  00:00        0.00
  13221                JUNCTION     0.00     0.00     2.25     0  00:00        0.00
  13291                JUNCTION     0.00     0.00     4.65     0  00:00        0.00
  13292                JUNCTION     0.00     0.00     3.65     0  00:00        0.00
  13384                JUNCTION     0.00     0.00     7.80     0  00:00        0.00
  13385                JUNCTION     0.00     0.00     7.69     0  00:00        0.00
  13386                JUNCTION     0.00     0.00     8.45     0  00:00        0.00
  13387                JUNCTION     0.00     0.00    22.62     0  00:00        0.00
  13388                JUNCTION     0.00     0.00    17.11     0  00:00        0.00
  13389                JUNCTION     0.00     0.00    19.09     0  00:00        0.00
  13390                JUNCTION     0.00     0.00    17.37     0  00:00        0.00
  13391                JUNCTION     0.00     0.00    23.09     0  00:00        0.00
  13392                JUNCTION     0.00     0.00    19.03     0  00:00        0.00
  13393                JUNCTION     0.21     0.45    -0.95     0  06:29        0.44
  13395                JUNCTION     0.00     0.00     0.53     0  00:00        0.00
  13396                JUNCTION     0.00     0.00    -0.29     0  00:00        0.00
  13400                JUNCTION     0.00     0.00     3.33     0  00:00        0.00
  13401                JUNCTION     0.00     0.00     4.08     0  00:00        0.00
  13416                JUNCTION     0.00     0.00     0.82     0  00:00        0.00
  13417                JUNCTION     0.00     0.00     0.32     0  00:00        0.00
  13418                JUNCTION     0.00     0.00     0.83     0  00:00        0.00
  13420                JUNCTION     0.05     0.28     2.23     0  04:42        0.28
  13421                JUNCTION     0.00     0.00     1.90     0  00:00        0.00
  13422                JUNCTION     0.00     0.03     2.84     0  20:48        0.02
  13423                JUNCTION     0.00     0.10     2.85     0  20:47        0.10
  13424                JUNCTION     0.01     0.48     2.91     0  20:47        0.45
  13425                JUNCTION     0.00     0.00     3.29     0  00:00        0.00
  13426                JUNCTION     0.00     0.00     2.63     0  00:00        0.00
  13427                JUNCTION     0.00     0.00     2.21     0  00:00        0.00
  13428                JUNCTION     0.00     0.00     2.36     0  00:00        0.00
  13429                JUNCTION     0.00     0.00    16.45     0  00:00        0.00
  13430                JUNCTION     0.00     0.00    16.21     0  00:00        0.00
  13442                JUNCTION     0.00     0.00     1.24     0  00:00        0.00
  13523                JUNCTION     0.00     0.00    19.80     0  00:00        0.00
  13524                JUNCTION     0.00     0.00     9.80     0  00:00        0.00
  13525                JUNCTION     0.00     0.00     8.40     0  00:00        0.00
  13529                JUNCTION     0.00     0.00    34.34     0  00:00        0.00
  13531                JUNCTION     0.00     0.00    23.56     0  00:00        0.00
  13532                JUNCTION     0.00     0.00     8.37     0  00:00        0.00
  13533                JUNCTION     0.00     0.00     8.65     0  00:00        0.00
  13534                JUNCTION     0.00     0.00     8.94     0  00:00        0.00
  13535                JUNCTION     0.00     0.00    11.84     0  00:00        0.00
  13536                JUNCTION     0.00     0.00    10.31     0  00:00        0.00
  13548                JUNCTION     0.00     0.00     6.07     0  00:00        0.00
  13549                JUNCTION     0.00     0.00     4.52     0  00:00        0.00
  13552                JUNCTION     0.00     0.00    -0.39     0  00:00        0.00
  13630                JUNCTION     0.00     0.00     8.26     0  00:00        0.00
  14028                JUNCTION     6.90    13.41    14.11     0  20:17       13.38
  14031                JUNCTION     0.02     0.21     9.76     0  00:00        0.19
  14139                JUNCTION     0.04     1.34     4.49     0  15:20        0.96
  14168                JUNCTION     1.23     9.38    13.11     0  19:29        9.37
  14185                JUNCTION    27.86    41.69    45.14     0  19:45       41.69
  14186                JUNCTION    28.05    41.88    45.14     0  19:45       41.87
  14187                JUNCTION    27.86    41.66    45.13     0  17:46       41.65
  14188                JUNCTION    22.46    40.38    41.29     0  20:24       40.38
  14189                JUNCTION    30.21    44.10    45.17     0  17:46       44.09
  15261                JUNCTION     0.00     0.00    14.00     0  00:00        0.00
  15262                JUNCTION     0.00     0.00    19.80     0  00:00        0.00
[...]
  23167                      24.00     24.00     24.00      0.01         0.01
  23168                      23.99     24.00     23.99      0.01         0.01
  23169                      24.00     24.00     24.00      0.01         0.01
  23384                       0.01      0.01      2.34      3.91         0.01
  23426                      22.79     23.12     22.79      0.01         0.49
  23430                      22.78     22.78     23.12      0.01         0.01
  23431                      22.44     22.44     22.78      0.06         0.01
  23601                      23.64     23.64     23.73      0.01         0.17
  23602                      23.72     23.73     23.75      0.01         0.17
  23621                      17.72     17.72     18.58      0.01         1.34
  23622                      17.26     17.26     17.72      0.57         2.76
  23761                      17.26     17.26     17.49      0.01         0.01
  23762                      17.49     17.49     18.32      0.01         0.01
  23866                      18.23     18.40     18.58      1.12         2.20
  23867                      16.56     16.56     19.92      0.08         0.17
  23869                      18.40     18.40     19.92      0.01         0.75
  23914                      24.00     24.00     24.00      0.01         0.08
  23915                       0.01      0.01     23.97      0.01         0.01
  23937                      21.53     21.53     22.44      0.01         0.01
  23939                      21.53     21.53     21.72      0.01         0.01
  23940                       0.04      0.04     21.24      0.01         0.01
  24038                       6.69      6.69      6.81      0.01         0.01
  24366                      21.84     21.84     21.88      6.17         0.01
  24367                       0.01      0.01     21.83      6.23         0.01
  24602                       5.79      5.79      5.85      0.01         0.01
  24603                       6.74      6.74      6.80      0.01         0.01
  27014                      21.63     21.63     21.74      2.17         0.01
  27016                      17.73     17.73     18.13      0.01         0.01
  27018                      21.62     21.79     21.62      0.01        19.47
  27019                       2.11      2.11     21.79      2.11         0.01
  27027                      18.13     18.13     18.16      0.01         0.01
  27028                      18.16     18.16     18.54      0.01         0.01
  27043                      18.45     18.45     18.45      2.76         5.52
  27045                      17.30     17.30     18.02      0.01         0.01
  27047                      17.30     17.30     17.50      0.01         0.01
  27049                      17.45     17.45     17.50      0.01         0.01
  27052                      17.78     17.80     17.83      1.42         1.31
  27053                      17.49     18.02     17.83      1.59        15.71
  27054                      17.45     17.45     20.04      0.01         0.01
  27056                      20.04     20.04     22.28      0.01         0.01
  27058                      20.82     20.82     22.22      0.01         0.01
  27060                      20.82     20.82     21.41      0.01         0.01
  27062                       4.14      4.14     16.89      0.01         0.01
  27064                       4.11      4.11     16.34      0.01         0.01
  27066                       0.01      0.01     12.39      0.01         0.01
  27068                      16.27     16.27     16.34      0.01         0.01
  27069                      16.27     16.27     16.27      4.16         6.69
  27070                      17.64     17.68     17.79      1.30         1.26
  27074                      18.89     18.89     19.39      0.01         0.01
  27075                      18.45     18.45     18.89      0.01         0.01
  27292                       2.91      2.92      2.95      3.54         1.42
  27293                       0.01      2.95      0.01      2.93         0.01
  27296                       2.92      2.92     20.28      3.46         0.04
  27304                       0.01      0.01      0.11      0.01         0.01
  27540                       0.01      0.01      2.77      0.01         0.01
  28485                       0.01      0.01     21.65      0.01         0.01
  28489                      22.28     22.28     22.30      0.01         2.61
  28506                       3.25      3.25     21.87      5.70         0.01
  31428                       0.01      0.01      2.46      0.01         0.01
  31431                       0.02      0.02      2.46      0.01         0.01
  31432                       0.01      0.01      0.03      0.01         0.01
  31433                       0.01      0.03      0.01      0.01         0.01
  32682                      23.74     23.74     24.00      5.21         5.21
  32720                      22.30     22.30     22.57      0.01         0.01
  32721                       0.01      0.01     21.01      0.01         0.01
  32722                       0.01      0.01     21.01      0.01         0.01
  32760                      11.34     11.34     18.41      0.01         0.01
  32761                      18.39     18.39     18.41      0.01         0.06
  5588                        4.97      4.97     12.82      0.01         0.01
  5606                        0.01      0.01      4.67      0.01         0.01
  5617                        9.30      9.30     13.26      0.01         0.01
  5618                       13.45     13.49     13.50      7.20         7.44
  5619                        0.01      0.01      6.85      0.01         0.01
  5620                        6.89      6.89      6.95      0.01         0.01
  5621                        7.69      7.69      7.75      0.01         0.01
  5622                        7.75      7.75      7.79      0.01         0.01
  5623                        7.81      7.81      8.67      0.01         0.01
  5624                        8.67      8.67      8.80      0.01         0.01
  5625                        8.81      8.81      8.88      0.01         0.01
  5626                        8.88      8.88      9.79      0.01         0.01
  5627                        9.79      9.79     10.00      0.01         0.01
  5628                       10.12     10.12     10.28      0.01         0.01
  5629                        5.82      5.82      6.70      0.01         0.01
  5634                        1.47      1.47      9.47      0.01         0.01
  5635                        7.93      7.93      9.67      0.01         0.57
  5636                       13.31     13.31     18.09      0.01         0.03
  5645                        0.01      0.01      0.91      0.01         0.01
  5646                        1.60      1.60      7.70      0.01         0.01
  5647                        5.76      5.76      6.65      0.01         0.01
  5648                        6.73      6.73      6.80      0.01         0.01
  5649                        6.82      6.82      6.87      0.01         0.01
  5663                        0.01      0.01     17.25      0.01         0.01
  5668                        0.01      0.01      4.48      0.01         0.01
  5681                        3.29      3.29      4.50      0.01         0.01
  5682                        0.32      0.32      1.81      0.01         0.01
  5683                        1.82      3.00      2.89      2.59         1.16
  5694                        0.09      0.09      0.70      0.01         0.01
  5695                        0.11      0.11      0.76      0.01         0.01
  5697                        0.76      0.76      1.48      0.01         0.01
  5698                        1.48      1.48      8.32      0.01         0.01
  5699                        8.32      8.32      9.44      0.01         0.01
  5700                        9.44      9.44      9.52      0.01         0.01
  5701                        7.38      7.38      7.81      0.01         0.01
  5702                        0.70      0.70      7.60      0.01         0.01
  5703                        7.72      7.72      7.83      0.01         0.01
  5704                        7.74      7.74      7.84      0.01         0.01
  5705                        7.97      7.97      9.32      0.01         0.01
  5706                        9.37      9.37      9.49      0.01         0.01
  5712                        7.81      7.81      8.00      0.01         0.01
  5713                       10.90     10.90     10.99      0.01         0.01
  5715                        7.58      7.58      7.68      0.01         0.01
  5902                        0.01      0.01      7.18      0.01         0.01
  5903                        7.73      7.73      7.98      0.01         0.01
  5904                       10.38     10.38     10.83      0.01         0.01
  5905                       11.11     11.11     11.52      0.01         0.01
  5906                       11.89     11.89     12.22      0.01         0.01
  5907                       12.26     12.26     12.38      0.01         0.01
  5908                        9.35      9.35      9.47      0.01         0.01
  5909                       10.89     10.89     11.15      0.01         0.01
  5912                       11.35     11.35     11.53      0.01         0.17
  5913                       11.55     11.55     11.77      0.01         0.01
  5914                       11.77     11.77     12.40      0.01         0.01
  5915                       12.41     12.41     12.49      0.01         0.01
  5916                       10.99     10.99     11.80      0.01         0.01
  5917                       12.49     12.49     12.51      0.01         0.13
  5918                       12.51     12.51     12.53      0.01         0.19
  5919                       12.54     12.54     12.54      0.01         1.05
  5920                       12.59     12.59     12.68      0.01         0.34
  5921                       12.68     12.68     13.49      0.01         0.01
  5923                        6.63      6.63      7.29      0.01         0.01
  5925                        7.69      7.69      8.02      0.38         0.49
  5926                        8.39      8.39      8.88      0.01         0.12
  5927                       10.16     10.16     10.37      0.01         0.03
  5930                        7.78      7.78      8.34      0.01         0.01
  5935                        0.01      0.01      7.19      0.01         0.01
  5938                        9.46      9.46     10.62      0.01         0.01
  5939                       10.69     10.69     10.87      0.01         0.01
  5941                        7.68      7.68      7.96      0.01         0.01
  5942                        7.97      7.97      9.16      0.01         0.01
  5944                        9.16      9.16      9.21      0.01         0.22
  5945                        9.21      9.21      9.46      0.01         0.01
  5946                        7.46      7.46      7.68      0.01         0.01
  5947                        0.01      0.01      7.30      0.01         0.01
  5953                        7.09      7.09      7.43      0.01         0.01
  8131                       10.14     10.14     10.72      0.01         0.01
  8418                        0.01      0.01     16.79      0.01         0.01
  8751                        0.01      0.01      0.03      0.01         0.01
  8756                        0.01      0.01      0.01      0.01         0.01
  8759                        0.01      0.01      0.01      0.01         0.01
  8767                        0.01      0.01      0.01      0.02         0.01
  8772                        0.01      0.01      0.01      0.01         0.01
  8774                        0.01      0.01      0.01      0.53         0.01
  8775                        0.01      0.01      0.01      0.55         0.01
  9119                        2.36      2.36      5.88      0.01         0.01
  9307                        0.01      0.01      3.75      0.01         0.01
  9308                        3.93      3.93      7.87      0.01         0.01
  9309                        7.87      7.87     10.93      0.01         0.01
  9310                       11.12     11.12     13.81      0.01         0.01
  9312                        9.97      9.97     12.77      0.01         0.01
  9457                        0.71      0.71      9.60      0.01         0.01
  9803                        0.01      0.01      0.01      0.01         0.01
  9804                        0.01      0.01      0.02      0.01         0.01
  9808                        0.01      0.02      0.01      0.01         0.01
  INV-SYPHC1                 21.65     21.65     22.28      0.01         0.01
  PRM1006-1                  19.61     19.61     24.00      0.01         0.01
  PRM1006-2                   0.01      0.01     24.00      0.01         0.01
  PRM1006-3                   0.01      0.01      0.01      0.01         0.01
  PRM1006-4                   0.01      0.01      0.01      6.88         0.01
  PRM1010-1                  22.82     22.84     22.82      6.34         5.96
  PRM1010-2                  21.87     21.93     21.87      6.22         5.70
  PRM1013-1                  24.00     24.00     24.00      8.57         0.01
  PRM1014-1                  24.00     24.00     24.00      0.01         0.01
  PRM1028-1                   0.01      0.01     24.00      3.25         0.01
  PRM1028-2                   0.01      0.01     24.00      0.01         0.01
  PSM1013-2                  24.00     24.00     24.00      1.31         2.38
  SRM1010_BN                  0.28      3.26      0.28      7.73         0.21
  WWTP-INLET                  0.01      0.01      0.01      1.07         0.01
  
  
  ***************
  Pumping Summary
  ***************
  
  ---------------------------------------------------------------------------------------------------------
                                                  Min       Avg       Max     Total     Power    % Time Off
                        Percent   Number of      Flow      Flow      Flow    Volume     Usage    Pump Curve
  Pump                 Utilized   Start-Ups       LPS       LPS       LPS  10^6 ltr     Kw-hr    Low   High
  ---------------------------------------------------------------------------------------------------------
  SPS1001_P1               2.40           3      0.00     67.80     77.26     0.140      4.94    0.0    0.0
  SPS1001_P2               0.00           0      0.00      0.00      0.00     0.000      0.00    0.0    0.0
  SPS1002_P1              37.23          42      0.00      9.02     90.00     0.290     20.91    0.0    6.6
  SPS1002_P2              27.21          26      0.00      0.39      1.18     0.009      1.08    0.0    0.0
  SPS1003_P1               7.43          24      0.00     23.15     54.95     0.149      9.11    0.0    0.0
  SPS1003_P2               0.00           0      0.00      0.00      0.00     0.000      0.00    0.0    0.0
  SPS1004_P1              14.87          12      0.00     29.75     70.00     0.382     18.13    0.0    0.2
  SPS1004_P2               0.00           0      0.00      0.00      0.00     0.000      0.00    0.0    0.0
  SPS1005_P1              14.49          13      0.00     22.58     60.00     0.283      9.15    0.0    0.6
  SPS1005_P2               0.00           0      0.00      0.00      0.00     0.000      0.00    0.0    0.0
  SPS1006_P1               3.70          12      0.00     27.81     69.89     0.089      4.22    0.0    0.0
  SPS1006_P2               0.00           0      0.00      0.00      0.00     0.000      0.00    0.0    0.0
  SPS1007_P1               9.03          20      0.00     37.53     39.43     0.293     15.13    0.0    0.0
  SPS1007_P2               0.00           0      0.00      0.00      0.00     0.000      0.00    0.0    0.0
  SPS1008_P1              12.92          42      0.00      9.07     28.97     0.101      2.04    0.0    0.0
  SPS1008_P2               0.00           0      0.00      0.00      0.00     0.000      0.00    0.0    0.0
  SPS1009_P1              12.07          37      0.00     14.14     14.70     0.147      2.96    0.0    0.0
  SPS1009_P2               0.00           0      0.00      0.00      0.00     0.000      0.00    0.0    0.0
  SPS1010_P1              22.22          21      0.00      8.93     33.07     0.172      5.47    0.0    0.0
  SPS1010_P2               0.00           0      0.00      0.00      0.00     0.000      0.00    0.0    0.0
  SPS1011_P1               1.34           9      0.00     17.85     25.39     0.021      0.82    0.0    0.0
  SPS1011_P2               0.00           0      0.00      0.00      0.00     0.000      0.00    0.0    0.0
  SPS1012_P1               8.66          68      0.00     15.88     16.19     0.119      7.05    0.0    0.0
  SPS1012_P2               0.00           0      0.00      0.00      0.00     0.000      0.00    0.0    0.0
  SPS1013_P1              13.61         166      0.00    100.00    100.00     1.176     30.67    0.0  100.0
  SPS1013_P2               0.00           0      0.00      0.00      0.00     0.000      0.00    0.0    0.0
  SPS1014_P1              21.72         118      0.00     46.49     77.99     0.873     60.28    0.0    0.0
  SPS1014_P2               0.00           0      0.00      0.00      0.00     0.000      0.00    0.0    0.0
  SPS1015_P1              40.97          33      0.00      5.46     40.00     0.193      8.01    0.0    0.1
  SPS1015_P2              31.86          16      0.00      0.79      7.95     0.022      2.09    0.0    0.0
  SPS1016_P1              25.93          20      0.00     15.69     25.50     0.351      7.01    0.0    0.0
  SPS1016_P2               0.00           0      0.00      0.00      0.00     0.000      0.00    0.0    0.0
  SPS1017_P1              32.22          51      0.00     11.22     33.86     0.312      6.77    0.0    0.0
  SPS1017_P2               0.00           0      0.00      0.00      0.00     0.000      0.00    0.0    0.0
  SPS1018_P1               2.86           3      0.00      4.56     16.94     0.011      0.13    0.0    0.0
  SPS1018_P2               0.00           0      0.00      0.00      0.00     0.000      0.00    0.0    0.0
  SPS1019_P1              38.58          21      0.00      8.75      9.38     0.292     13.10    0.0    0.0
  SPS1019_P2               0.00           0      0.00      0.00      0.00     0.000      0.00    0.0    0.0
  SPS1020-P1              27.47          61      0.00      1.90      3.60     0.045      2.93    0.0    0.2
  SPS1020-P2               0.00           0      0.00      0.00      0.00     0.000      0.00    0.0    0.0
  SPS1022_P1               9.48          76      0.00     51.42    110.00     0.421     46.59    0.0    1.2
  SPS1022_P2               0.00           0      0.00      0.00      0.00     0.000      0.00    0.0    0.0
  SPS1023_P1               8.70         125      0.00     79.55     80.00     0.598     13.95    0.0   74.7
  SPS1023_P2               0.00           0      0.00      0.00      0.00     0.000      0.00    0.0    0.0
  SPS1027_P1               4.20          14      0.00      6.14     14.63     0.022      0.80    0.0    0.0
  SPS1027_P2               4.20          14      0.00      6.14     14.63     0.022      0.80    0.0    0.0
  SPS1028_P1              13.54          30      0.00     28.56     80.00     0.334     33.78    0.0    2.6
  SPS1028_P2               0.00           0      0.00      0.00      0.00     0.000      0.00    0.0    0.0
  SPS1029_P1               5.88          40      0.00     26.37     27.50     0.134      2.26    0.0   17.1
  SPS1029_P2               0.00           0      0.00      0.00      0.00     0.000      0.00    0.0    0.0
  

  Analysis begun on:  Wed Jun 24 15:08:20 2026
  Analysis ended on:  Wed Jun 24 15:08:29 2026
  Total elapsed time: 00:00:09