
  EPA STORM WATER MANAGEMENT MODEL - VERSION 5.2 (Build 5.2.4)
  ------------------------------------------------------------

  
  ERROR 211: invalid number -30.000000 at line 345 of [JUNC] section:
  1194             150.000000 -30.000000 0.000000   1000.000000 0.000000  

  
  ERROR 211: invalid number -3.190000 at line 1279 of [JUNC] section:
  40-0399J         177.100000 -3.190000  0.000000   1000.000000 0.000000  


  Analysis begun on:  Wed Jun 24 15:08:30 2026
  Analysis ended on:  Wed Jun 24 15:08:30 2026
  Total elapsed time: < 1 sec