
  EPA STORM WATER MANAGEMENT MODEL - VERSION 5.2 (Build 5.2.4)
  ------------------------------------------------------------

  WARNING 04: minimum elevation drop used for Conduit 1085
  WARNING 04: minimum elevation drop used for Conduit 1633
  WARNING 04: minimum elevation drop used for Conduit 1635
  WARNING 04: minimum elevation drop used for Conduit 1637
  WARNING 04: minimum elevation drop used for Conduit 1639
  WARNING 04: minimum elevation drop used for Conduit 1681
  WARNING 04: minimum elevation drop used for Conduit 1705
  WARNING 04: minimum elevation drop used for Conduit 1735
  WARNING 08: elevation drop exceeds length for Conduit 1763
  WARNING 08: elevation drop exceeds length for Conduit 1767
  WARNING 04: minimum elevation drop used for Conduit 1931
  WARNING 04: minimum elevation drop used for Conduit 3075
  WARNING 04: minimum elevation drop used for Conduit 3077
  WARNING 04: minimum elevation drop used for Conduit 3079
  WARNING 04: minimum elevation drop used for Conduit 3081
  WARNING 04: minimum elevation drop used for Conduit 3083
  WARNING 04: minimum elevation drop used for Conduit 3085
  WARNING 04: minimum elevation drop used for Conduit 3087
  WARNING 04: minimum elevation drop used for Conduit 3089
  WARNING 04: minimum elevation drop used for Conduit 3091
  WARNING 04: minimum elevation drop used for Conduit 3093
  WARNING 04: minimum elevation drop used for Conduit 3149
  WARNING 04: minimum elevation drop used for Conduit 3245
  WARNING 04: minimum elevation drop used for Conduit 3279
  WARNING 04: minimum elevation drop used for Conduit 3295
  WARNING 04: minimum elevation drop used for Conduit 3341
  WARNING 04: minimum elevation drop used for Conduit 3351
  WARNING 04: minimum elevation drop used for Conduit 3375
  WARNING 04: minimum elevation drop used for Conduit 3387
  WARNING 04: minimum elevation drop used for Conduit 3491
  WARNING 04: minimum elevation drop used for Conduit 3541
  WARNING 04: minimum elevation drop used for Conduit 3603
  WARNING 04: minimum elevation drop used for Conduit 3633
  WARNING 04: minimum elevation drop used for Conduit 3665
  WARNING 08: elevation drop exceeds length for Conduit 3679
  WARNING 04: minimum elevation drop used for Conduit 3713
  WARNING 04: minimum elevation drop used for Conduit 3759
  WARNING 04: minimum elevation drop used for Conduit 3761
  WARNING 04: minimum elevation drop used for Conduit 3763
  WARNING 04: minimum elevation drop used for Conduit 3765
  WARNING 04: minimum elevation drop used for Conduit 3767
  WARNING 04: minimum elevation drop used for Conduit 3769
  WARNING 04: minimum elevation drop used for Conduit 3771
  WARNING 04: minimum elevation drop used for Conduit 3773
  WARNING 04: minimum elevation drop used for Conduit 3775
  WARNING 04: minimum elevation drop used for Conduit 3777
  WARNING 04: minimum elevation drop used for Conduit 3779
  WARNING 04: minimum elevation drop used for Conduit 3781
  WARNING 04: minimum elevation drop used for Conduit 3783
  WARNING 04: minimum elevation drop used for Conduit 3785
  WARNING 08: elevation drop exceeds length for Conduit 3937
  WARNING 04: minimum elevation drop used for Conduit 3965
  WARNING 04: minimum elevation drop used for Conduit 3983
  WARNING 08: elevation drop exceeds length for Conduit 3995
  WARNING 04: minimum elevation drop used for Conduit 3997
  WARNING 08: elevation drop exceeds length for Conduit 4417
  WARNING 04: minimum elevation drop used for Conduit 4723
  WARNING 04: minimum elevation drop used for Conduit 4959
  WARNING 04: minimum elevation drop used for Conduit 4963
  WARNING 02: maximum depth increased for Node 10
  WARNING 02: maximum depth increased for Node 100
  WARNING 02: maximum depth increased for Node 1004
  WARNING 02: maximum depth increased for Node 1006
  WARNING 02: maximum depth increased for Node 1008
  WARNING 02: maximum depth increased for Node 1012
  WARNING 02: maximum depth increased for Node 1014
  WARNING 02: maximum depth increased for Node 1016
  WARNING 02: maximum depth increased for Node 1018
  WARNING 02: maximum depth increased for Node 1020
  WARNING 02: maximum depth increased for Node 1022
  WARNING 02: maximum depth increased for Node 1026
  WARNING 02: maximum depth increased for Node 1028
  WARNING 02: maximum depth increased for Node 1030
  WARNING 02: maximum depth increased for Node 1034
  WARNING 02: maximum depth increased for Node 1036
  WARNING 02: maximum depth increased for Node 1038
  WARNING 02: maximum depth increased for Node 104
  WARNING 02: maximum depth increased for Node 1040
  WARNING 02: maximum depth increased for Node 1042
  WARNING 02: maximum depth increased for Node 1044
  WARNING 02: maximum depth increased for Node 1046
  WARNING 02: maximum depth increased for Node 1048
  WARNING 02: maximum depth increased for Node 1050
  WARNING 02: maximum depth increased for Node 1054
  WARNING 02: maximum depth increased for Node 1056
  WARNING 02: maximum depth increased for Node 1058
  WARNING 02: maximum depth increased for Node 106
  WARNING 02: maximum depth increased for Node 1060
  WARNING 02: maximum depth increased for Node 1062
  WARNING 02: maximum depth increased for Node 1064
  WARNING 02: maximum depth increased for Node 1066
  WARNING 02: maximum depth increased for Node 1068
  WARNING 02: maximum depth increased for Node 1070
  WARNING 02: maximum depth increased for Node 1072
  WARNING 02: maximum depth increased for Node 1074
  WARNING 02: maximum depth increased for Node 1076
  WARNING 02: maximum depth increased for Node 1078
  WARNING 02: maximum depth increased for Node 1080
  WARNING 02: maximum depth increased for Node 1082
  WARNING 02: maximum depth increased for Node 1084
  WARNING 02: maximum depth increased for Node 1086
  WARNING 02: maximum depth increased for Node 1088
  WARNING 02: maximum depth increased for Node 1096
  WARNING 02: maximum depth increased for Node 1098
  WARNING 02: maximum depth increased for Node 110
  WARNING 02: maximum depth increased for Node 1100
  WARNING 02: maximum depth increased for Node 1102
  WARNING 02: maximum depth increased for Node 1104
  WARNING 02: maximum depth increased for Node 1106
  WARNING 02: maximum depth increased for Node 1108
  WARNING 02: maximum depth increased for Node 1110
  WARNING 02: maximum depth increased for Node 1112
  WARNING 02: maximum depth increased for Node 1114
  WARNING 02: maximum depth increased for Node 1116
  WARNING 02: maximum depth increased for Node 1118
  WARNING 02: maximum depth increased for Node 1120
  WARNING 02: maximum depth increased for Node 1122
  WARNING 02: maximum depth increased for Node 1124
  WARNING 02: maximum depth increased for Node 1126
  WARNING 02: maximum depth increased for Node 1128
  WARNING 02: maximum depth increased for Node 1132
  WARNING 02: maximum depth increased for Node 1134
  WARNING 02: maximum depth increased for Node 114
  WARNING 02: maximum depth increased for Node 1140
  WARNING 02: maximum depth increased for Node 1144
  WARNING 02: maximum depth increased for Node 1146
  WARNING 02: maximum depth increased for Node 1148
  WARNING 02: maximum depth increased for Node 1150
  WARNING 02: maximum depth increased for Node 1152
  WARNING 02: maximum depth increased for Node 1154
  WARNING 02: maximum depth increased for Node 1156
  WARNING 02: maximum depth increased for Node 1158
  WARNING 02: maximum depth increased for Node 116
  WARNING 02: maximum depth increased for Node 1160
  WARNING 02: maximum depth increased for Node 1162
  WARNING 02: maximum depth increased for Node 1164
  WARNING 02: maximum depth increased for Node 1166
  WARNING 02: maximum depth increased for Node 1168
  WARNING 02: maximum depth increased for Node 1170
  WARNING 02: maximum depth increased for Node 1172
  WARNING 02: maximum depth increased for Node 1174
  WARNING 02: maximum depth increased for Node 1176
  WARNING 02: maximum depth increased for Node 1178
  WARNING 02: maximum depth increased for Node 118
  WARNING 02: maximum depth increased for Node 1180
  WARNING 02: maximum depth increased for Node 1182
  WARNING 02: maximum depth increased for Node 1184
  WARNING 02: maximum depth increased for Node 1186
  WARNING 02: maximum depth increased for Node 1188
  WARNING 02: maximum depth increased for Node 1192
  WARNING 02: maximum depth increased for Node 1194
  WARNING 02: maximum depth increased for Node 1198
  WARNING 02: maximum depth increased for Node 12
  WARNING 02: maximum depth increased for Node 1200
  WARNING 02: maximum depth increased for Node 1204
  WARNING 02: maximum depth increased for Node 1206
  WARNING 02: maximum depth increased for Node 1210
  WARNING 02: maximum depth increased for Node 1212
  WARNING 02: maximum depth increased for Node 1214
  WARNING 02: maximum depth increased for Node 1216
  WARNING 02: maximum depth increased for Node 1218
  WARNING 02: maximum depth increased for Node 1220
  WARNING 02: maximum depth increased for Node 1222
  WARNING 02: maximum depth increased for Node 1224
  WARNING 02: maximum depth increased for Node 1226
  WARNING 02: maximum depth increased for Node 1228
  WARNING 02: maximum depth increased for Node 1232
  WARNING 02: maximum depth increased for Node 1234
  WARNING 02: maximum depth increased for Node 1236
  WARNING 02: maximum depth increased for Node 124
  WARNING 02: maximum depth increased for Node 1240
  WARNING 02: maximum depth increased for Node 1242
  WARNING 02: maximum depth increased for Node 1244
  WARNING 02: maximum depth increased for Node 1248
  WARNING 02: maximum depth increased for Node 1252
  WARNING 02: maximum depth increased for Node 1254
  WARNING 02: maximum depth increased for Node 1256
  WARNING 02: maximum depth increased for Node 126
  WARNING 02: maximum depth increased for Node 1260
  WARNING 02: maximum depth increased for Node 1262
  WARNING 02: maximum depth increased for Node 1266
  WARNING 02: maximum depth increased for Node 1268
  WARNING 02: maximum depth increased for Node 1270
  WARNING 02: maximum depth increased for Node 1274
  WARNING 02: maximum depth increased for Node 1276
  WARNING 02: maximum depth increased for Node 1278
  WARNING 02: maximum depth increased for Node 1282
  WARNING 02: maximum depth increased for Node 1284
  WARNING 02: maximum depth increased for Node 1286
  WARNING 02: maximum depth increased for Node 1290
  WARNING 02: maximum depth increased for Node 1294
  WARNING 02: maximum depth increased for Node 1296
  WARNING 02: maximum depth increased for Node 1300
  WARNING 02: maximum depth increased for Node 1302
  WARNING 02: maximum depth increased for Node 1304
  WARNING 02: maximum depth increased for Node 1308
  WARNING 02: maximum depth increased for Node 1310
  WARNING 02: maximum depth increased for Node 1312
  WARNING 02: maximum depth increased for Node 1314
  WARNING 02: maximum depth increased for Node 1318
  WARNING 02: maximum depth increased for Node 132
  WARNING 02: maximum depth increased for Node 1322
  WARNING 02: maximum depth increased for Node 1324
  WARNING 02: maximum depth increased for Node 1326
  WARNING 02: maximum depth increased for Node 1330
  WARNING 02: maximum depth increased for Node 1332
  WARNING 02: maximum depth increased for Node 1334
  WARNING 02: maximum depth increased for Node 1336
  WARNING 02: maximum depth increased for Node 134
  WARNING 02: maximum depth increased for Node 1340
  WARNING 02: maximum depth increased for Node 1342
  WARNING 02: maximum depth increased for Node 1344
  WARNING 02: maximum depth increased for Node 1346
  WARNING 02: maximum depth increased for Node 1350
  WARNING 02: maximum depth increased for Node 1352
  WARNING 02: maximum depth increased for Node 1354
  WARNING 02: maximum depth increased for Node 1356
  WARNING 02: maximum depth increased for Node 1358
  WARNING 02: maximum depth increased for Node 136
  WARNING 02: maximum depth increased for Node 1360
  WARNING 02: maximum depth increased for Node 1362
  WARNING 02: maximum depth increased for Node 1364
  WARNING 02: maximum depth increased for Node 1366
  WARNING 02: maximum depth increased for Node 1370
  WARNING 02: maximum depth increased for Node 1372
  WARNING 02: maximum depth increased for Node 1378
  WARNING 02: maximum depth increased for Node 138
  WARNING 02: maximum depth increased for Node 1380
  WARNING 02: maximum depth increased for Node 1382
  WARNING 02: maximum depth increased for Node 1384
  WARNING 02: maximum depth increased for Node 1386
  WARNING 02: maximum depth increased for Node 1390
  WARNING 02: maximum depth increased for Node 1392
  WARNING 02: maximum depth increased for Node 1398
  WARNING 02: maximum depth increased for Node 140
  WARNING 02: maximum depth increased for Node 1400
  WARNING 02: maximum depth increased for Node 1402
  WARNING 02: maximum depth increased for Node 1408
  WARNING 02: maximum depth increased for Node 1414
  WARNING 02: maximum depth increased for Node 142
  WARNING 02: maximum depth increased for Node 1420
  WARNING 02: maximum depth increased for Node 1424
  WARNING 02: maximum depth increased for Node 1426
  WARNING 02: maximum depth increased for Node 1428
  WARNING 02: maximum depth increased for Node 1432
  WARNING 02: maximum depth increased for Node 1434
  WARNING 02: maximum depth increased for Node 1436
  WARNING 02: maximum depth increased for Node 1440
  WARNING 02: maximum depth increased for Node 1444
  WARNING 02: maximum depth increased for Node 1446
  WARNING 02: maximum depth increased for Node 1448
  WARNING 02: maximum depth increased for Node 1450
  WARNING 02: maximum depth increased for Node 1452
  WARNING 02: maximum depth increased for Node 1454
  WARNING 02: maximum depth increased for Node 1456
  WARNING 02: maximum depth increased for Node 146
  WARNING 02: maximum depth increased for Node 1460
  WARNING 02: maximum depth increased for Node 1462
  WARNING 02: maximum depth increased for Node 1464
  WARNING 02: maximum depth increased for Node 1466
  WARNING 02: maximum depth increased for Node 1468
  WARNING 02: maximum depth increased for Node 1476
  WARNING 02: maximum depth increased for Node 1480
  WARNING 02: maximum depth increased for Node 1482
  WARNING 02: maximum depth increased for Node 1484
  WARNING 02: maximum depth increased for Node 1488
  WARNING 02: maximum depth increased for Node 1494
  WARNING 02: maximum depth increased for Node 1496
  WARNING 02: maximum depth increased for Node 1498
  WARNING 02: maximum depth increased for Node 1500
  WARNING 02: maximum depth increased for Node 1502
  WARNING 02: maximum depth increased for Node 1504
  WARNING 02: maximum depth increased for Node 1506
  WARNING 02: maximum depth increased for Node 1508
  WARNING 02: maximum depth increased for Node 1512
  WARNING 02: maximum depth increased for Node 1514
  WARNING 02: maximum depth increased for Node 152
  WARNING 02: maximum depth increased for Node 1520
  WARNING 02: maximum depth increased for Node 1522
  WARNING 02: maximum depth increased for Node 1524
  WARNING 02: maximum depth increased for Node 1528
  WARNING 02: maximum depth increased for Node 1532
  WARNING 02: maximum depth increased for Node 1536
  WARNING 02: maximum depth increased for Node 1538
  WARNING 02: maximum depth increased for Node 154
  WARNING 02: maximum depth increased for Node 1540
  WARNING 02: maximum depth increased for Node 1544
  WARNING 02: maximum depth increased for Node 1546
  WARNING 02: maximum depth increased for Node 1548
  WARNING 02: maximum depth increased for Node 1550
  WARNING 02: maximum depth increased for Node 1552
  WARNING 02: maximum depth increased for Node 1554
  WARNING 02: maximum depth increased for Node 1556
  WARNING 02: maximum depth increased for Node 1558
  WARNING 02: maximum depth increased for Node 156
  WARNING 02: maximum depth increased for Node 1560
  WARNING 02: maximum depth increased for Node 1562
  WARNING 02: maximum depth increased for Node 1564
  WARNING 02: maximum depth increased for Node 1566
  WARNING 02: maximum depth increased for Node 1568
  WARNING 02: maximum depth increased for Node 1570
  WARNING 02: maximum depth increased for Node 1572
  WARNING 02: maximum depth increased for Node 1574
  WARNING 02: maximum depth increased for Node 1578
  WARNING 02: maximum depth increased for Node 158
  WARNING 02: maximum depth increased for Node 1580
  WARNING 02: maximum depth increased for Node 1582
  WARNING 02: maximum depth increased for Node 1586
  WARNING 02: maximum depth increased for Node 1588
  WARNING 02: maximum depth increased for Node 1590
  WARNING 02: maximum depth increased for Node 1594
  WARNING 02: maximum depth increased for Node 1596
  WARNING 02: maximum depth increased for Node 16
  WARNING 02: maximum depth increased for Node 160
  WARNING 02: maximum depth increased for Node 1600
  WARNING 02: maximum depth increased for Node 1602
  WARNING 02: maximum depth increased for Node 1604
  WARNING 02: maximum depth increased for Node 1606
  WARNING 02: maximum depth increased for Node 1608
  WARNING 02: maximum depth increased for Node 1610
  WARNING 02: maximum depth increased for Node 1614
  WARNING 02: maximum depth increased for Node 1618
  WARNING 02: maximum depth increased for Node 162
  WARNING 02: maximum depth increased for Node 1620
  WARNING 02: maximum depth increased for Node 1622
  WARNING 02: maximum depth increased for Node 1624
  WARNING 02: maximum depth increased for Node 1628
  WARNING 02: maximum depth increased for Node 1630
  WARNING 02: maximum depth increased for Node 1632
  WARNING 02: maximum depth increased for Node 1634
  WARNING 02: maximum depth increased for Node 1638
  WARNING 02: maximum depth increased for Node 164
  WARNING 02: maximum depth increased for Node 1642
  WARNING 02: maximum depth increased for Node 1644
  WARNING 02: maximum depth increased for Node 1646
  WARNING 02: maximum depth increased for Node 1648
  WARNING 02: maximum depth increased for Node 1652
  WARNING 02: maximum depth increased for Node 1654
  WARNING 02: maximum depth increased for Node 1656
  WARNING 02: maximum depth increased for Node 1662
  WARNING 02: maximum depth increased for Node 1664
  WARNING 02: maximum depth increased for Node 1666
  WARNING 02: maximum depth increased for Node 1668
  WARNING 02: maximum depth increased for Node 1670
  WARNING 02: maximum depth increased for Node 1672
  WARNING 02: maximum depth increased for Node 1674
  WARNING 02: maximum depth increased for Node 1676
  WARNING 02: maximum depth increased for Node 1678
  WARNING 02: maximum depth increased for Node 168
  WARNING 02: maximum depth increased for Node 1680
  WARNING 02: maximum depth increased for Node 1682
  WARNING 02: maximum depth increased for Node 1688
  WARNING 02: maximum depth increased for Node 1690
  WARNING 02: maximum depth increased for Node 1694
  WARNING 02: maximum depth increased for Node 1696
  WARNING 02: maximum depth increased for Node 1698
  WARNING 02: maximum depth increased for Node 1700
  WARNING 02: maximum depth increased for Node 1702
  WARNING 02: maximum depth increased for Node 1708
  WARNING 02: maximum depth increased for Node 1712
  WARNING 02: maximum depth increased for Node 1714
  WARNING 02: maximum depth increased for Node 1716
  WARNING 02: maximum depth increased for Node 1718
  WARNING 02: maximum depth increased for Node 1720
  WARNING 02: maximum depth increased for Node 1724
  WARNING 02: maximum depth increased for Node 1726
  WARNING 02: maximum depth increased for Node 1728
  WARNING 02: maximum depth increased for Node 1730
  WARNING 02: maximum depth increased for Node 1734
  WARNING 02: maximum depth increased for Node 1736
  WARNING 02: maximum depth increased for Node 1738
  WARNING 02: maximum depth increased for Node 174
  WARNING 02: maximum depth increased for Node 1740
  WARNING 02: maximum depth increased for Node 1742
  WARNING 02: maximum depth increased for Node 1744
  WARNING 02: maximum depth increased for Node 1746
  WARNING 02: maximum depth increased for Node 1748
  WARNING 02: maximum depth increased for Node 1750
  WARNING 02: maximum depth increased for Node 1754
  WARNING 02: maximum depth increased for Node 1758
  WARNING 02: maximum depth increased for Node 1760
  WARNING 02: maximum depth increased for Node 1764
  WARNING 02: maximum depth increased for Node 1770
  WARNING 02: maximum depth increased for Node 1772
  WARNING 02: maximum depth increased for Node 178
  WARNING 02: maximum depth increased for Node 1792
  WARNING 02: maximum depth increased for Node 1794
  WARNING 02: maximum depth increased for Node 1798
  WARNING 02: maximum depth increased for Node 18
  WARNING 02: maximum depth increased for Node 180
  WARNING 02: maximum depth increased for Node 1800
  WARNING 02: maximum depth increased for Node 1804
  WARNING 02: maximum depth increased for Node 1806
  WARNING 02: maximum depth increased for Node 1810
  WARNING 02: maximum depth increased for Node 1812
  WARNING 02: maximum depth increased for Node 1818
  WARNING 02: maximum depth increased for Node 1820
  WARNING 02: maximum depth increased for Node 1822
  WARNING 02: maximum depth increased for Node 1824
  WARNING 02: maximum depth increased for Node 1826
  WARNING 02: maximum depth increased for Node 1828
  WARNING 02: maximum depth increased for Node 1830
  WARNING 02: maximum depth increased for Node 1832
  WARNING 02: maximum depth increased for Node 1836
  WARNING 02: maximum depth increased for Node 1838
  WARNING 02: maximum depth increased for Node 184
  WARNING 02: maximum depth increased for Node 1840
  WARNING 02: maximum depth increased for Node 1844
  WARNING 02: maximum depth increased for Node 1846
  WARNING 02: maximum depth increased for Node 1848
  WARNING 02: maximum depth increased for Node 1850
  WARNING 02: maximum depth increased for Node 1854
  WARNING 02: maximum depth increased for Node 1858
  WARNING 02: maximum depth increased for Node 186
  WARNING 02: maximum depth increased for Node 1860
  WARNING 02: maximum depth increased for Node 1862
  WARNING 02: maximum depth increased for Node 1864
  WARNING 02: maximum depth increased for Node 1868
  WARNING 02: maximum depth increased for Node 1870
  WARNING 02: maximum depth increased for Node 1872
  WARNING 02: maximum depth increased for Node 1878
  WARNING 02: maximum depth increased for Node 188
  WARNING 02: maximum depth increased for Node 1880
  WARNING 02: maximum depth increased for Node 1882
  WARNING 02: maximum depth increased for Node 1884
  WARNING 02: maximum depth increased for Node 1888
  WARNING 02: maximum depth increased for Node 1890
  WARNING 02: maximum depth increased for Node 1892
  WARNING 02: maximum depth increased for Node 1894
  WARNING 02: maximum depth increased for Node 1896
  WARNING 02: maximum depth increased for Node 1898
  WARNING 02: maximum depth increased for Node 190
  WARNING 02: maximum depth increased for Node 1900
  WARNING 02: maximum depth increased for Node 1902
  WARNING 02: maximum depth increased for Node 1904
  WARNING 02: maximum depth increased for Node 1906
  WARNING 02: maximum depth increased for Node 1908
  WARNING 02: maximum depth increased for Node 1910
  WARNING 02: maximum depth increased for Node 1912
  WARNING 02: maximum depth increased for Node 1916
  WARNING 02: maximum depth increased for Node 1918
  WARNING 02: maximum depth increased for Node 192
  WARNING 02: maximum depth increased for Node 1920
  WARNING 02: maximum depth increased for Node 1924
  WARNING 02: maximum depth increased for Node 1926
  WARNING 02: maximum depth increased for Node 1928
  WARNING 02: maximum depth increased for Node 1930
  WARNING 02: maximum depth increased for Node 1932
  WARNING 02: maximum depth increased for Node 1936
  WARNING 02: maximum depth increased for Node 1946
  WARNING 02: maximum depth increased for Node 1948
  WARNING 02: maximum depth increased for Node 1952
  WARNING 02: maximum depth increased for Node 1954
  WARNING 02: maximum depth increased for Node 1956
  WARNING 02: maximum depth increased for Node 1958
  WARNING 02: maximum depth increased for Node 196
  WARNING 02: maximum depth increased for Node 1960
  WARNING 02: maximum depth increased for Node 1962
  WARNING 02: maximum depth increased for Node 1964
  WARNING 02: maximum depth increased for Node 1966
  WARNING 02: maximum depth increased for Node 1968
  WARNING 02: maximum depth increased for Node 1974
  WARNING 02: maximum depth increased for Node 1976
  WARNING 02: maximum depth increased for Node 1978
  WARNING 02: maximum depth increased for Node 1980
  WARNING 02: maximum depth increased for Node 1984
  WARNING 02: maximum depth increased for Node 1986
  WARNING 02: maximum depth increased for Node 1988
  WARNING 02: maximum depth increased for Node 1990
  WARNING 02: maximum depth increased for Node 1992
  WARNING 02: maximum depth increased for Node 1994
  WARNING 02: maximum depth increased for Node 1996
  WARNING 02: maximum depth increased for Node 20
  WARNING 02: maximum depth increased for Node 200
  WARNING 02: maximum depth increased for Node 2004
  WARNING 02: maximum depth increased for Node 2006
  WARNING 02: maximum depth increased for Node 2010
  WARNING 02: maximum depth increased for Node 2012
  WARNING 02: maximum depth increased for Node 2018
  WARNING 02: maximum depth increased for Node 202
  WARNING 02: maximum depth increased for Node 2020
  WARNING 02: maximum depth increased for Node 2022
  WARNING 02: maximum depth increased for Node 2024
  WARNING 02: maximum depth increased for Node 2026
  WARNING 02: maximum depth increased for Node 2030
  WARNING 02: maximum depth increased for Node 2032
  WARNING 02: maximum depth increased for Node 2034
  WARNING 02: maximum depth increased for Node 2036
  WARNING 02: maximum depth increased for Node 204
  WARNING 02: maximum depth increased for Node 2040
  WARNING 02: maximum depth increased for Node 2044
  WARNING 02: maximum depth increased for Node 2048
  WARNING 02: maximum depth increased for Node 2050
  WARNING 02: maximum depth increased for Node 2052
  WARNING 02: maximum depth increased for Node 2054
  WARNING 02: maximum depth increased for Node 2058
  WARNING 02: maximum depth increased for Node 206
  WARNING 02: maximum depth increased for Node 2060
  WARNING 02: maximum depth increased for Node 2062
  WARNING 02: maximum depth increased for Node 2066
  WARNING 02: maximum depth increased for Node 2068
  WARNING 02: maximum depth increased for Node 2070
  WARNING 02: maximum depth increased for Node 2072
  WARNING 02: maximum depth increased for Node 2074
  WARNING 02: maximum depth increased for Node 2078
  WARNING 02: maximum depth increased for Node 208
  WARNING 02: maximum depth increased for Node 2080
  WARNING 02: maximum depth increased for Node 2082
  WARNING 02: maximum depth increased for Node 2086
  WARNING 02: maximum depth increased for Node 2088
  WARNING 02: maximum depth increased for Node 2090
  WARNING 02: maximum depth increased for Node 2092
  WARNING 02: maximum depth increased for Node 2094
  WARNING 02: maximum depth increased for Node 2096
  WARNING 02: maximum depth increased for Node 2098
  WARNING 02: maximum depth increased for Node 2100
  WARNING 02: maximum depth increased for Node 2104
  WARNING 02: maximum depth increased for Node 2106
  WARNING 02: maximum depth increased for Node 2110
  WARNING 02: maximum depth increased for Node 2116
  WARNING 02: maximum depth increased for Node 212
  WARNING 02: maximum depth increased for Node 2124
  WARNING 02: maximum depth increased for Node 2126
  WARNING 02: maximum depth increased for Node 2128
  WARNING 02: maximum depth increased for Node 2130
  WARNING 02: maximum depth increased for Node 2132
  WARNING 02: maximum depth increased for Node 2134
  WARNING 02: maximum depth increased for Node 2136
  WARNING 02: maximum depth increased for Node 2140
  WARNING 02: maximum depth increased for Node 2142
  WARNING 02: maximum depth increased for Node 2144
  WARNING 02: maximum depth increased for Node 2146
  WARNING 02: maximum depth increased for Node 2150
  WARNING 02: maximum depth increased for Node 2152
  WARNING 02: maximum depth increased for Node 2154
  WARNING 02: maximum depth increased for Node 2156
  WARNING 02: maximum depth increased for Node 2158
  WARNING 02: maximum depth increased for Node 216
  WARNING 02: maximum depth increased for Node 2160
  WARNING 02: maximum depth increased for Node 2162
  WARNING 02: maximum depth increased for Node 2164
  WARNING 02: maximum depth increased for Node 2168
  WARNING 02: maximum depth increased for Node 2170
  WARNING 02: maximum depth increased for Node 2172
  WARNING 02: maximum depth increased for Node 2176
  WARNING 02: maximum depth increased for Node 2178
  WARNING 02: maximum depth increased for Node 218
  WARNING 02: maximum depth increased for Node 2180
  WARNING 02: maximum depth increased for Node 2182
  WARNING 02: maximum depth increased for Node 2184
  WARNING 02: maximum depth increased for Node 2186
  WARNING 02: maximum depth increased for Node 2188
  WARNING 02: maximum depth increased for Node 2190
  WARNING 02: maximum depth increased for Node 2192
  WARNING 02: maximum depth increased for Node 2194
  WARNING 02: maximum depth increased for Node 2198
  WARNING 02: maximum depth increased for Node 22
  WARNING 02: maximum depth increased for Node 2200
  WARNING 02: maximum depth increased for Node 2202
  WARNING 02: maximum depth increased for Node 2204
  WARNING 02: maximum depth increased for Node 2208
  WARNING 02: maximum depth increased for Node 2210
  WARNING 02: maximum depth increased for Node 2212
  WARNING 02: maximum depth increased for Node 2214
  WARNING 02: maximum depth increased for Node 222
  WARNING 02: maximum depth increased for Node 2220
  WARNING 02: maximum depth increased for Node 2222
  WARNING 02: maximum depth increased for Node 2224
  WARNING 02: maximum depth increased for Node 2232
  WARNING 02: maximum depth increased for Node 224
  WARNING 02: maximum depth increased for Node 2240
  WARNING 02: maximum depth increased for Node 2244
  WARNING 02: maximum depth increased for Node 2246
  WARNING 02: maximum depth increased for Node 2248
  WARNING 02: maximum depth increased for Node 2250
  WARNING 02: maximum depth increased for Node 2252
  WARNING 02: maximum depth increased for Node 2254
  WARNING 02: maximum depth increased for Node 2256
  WARNING 02: maximum depth increased for Node 2258
  WARNING 02: maximum depth increased for Node 226
  WARNING 02: maximum depth increased for Node 2260
  WARNING 02: maximum depth increased for Node 2262
  WARNING 02: maximum depth increased for Node 2264
  WARNING 02: maximum depth increased for Node 2266
  WARNING 02: maximum depth increased for Node 2270
  WARNING 02: maximum depth increased for Node 2272
  WARNING 02: maximum depth increased for Node 2274
  WARNING 02: maximum depth increased for Node 228
  WARNING 02: maximum depth increased for Node 2282
  WARNING 02: maximum depth increased for Node 2284
  WARNING 02: maximum depth increased for Node 2286
  WARNING 02: maximum depth increased for Node 2288
  WARNING 02: maximum depth increased for Node 2292
  WARNING 02: maximum depth increased for Node 2296
  WARNING 02: maximum depth increased for Node 2298
  WARNING 02: maximum depth increased for Node 230
  WARNING 02: maximum depth increased for Node 2300
  WARNING 02: maximum depth increased for Node 2302
  WARNING 02: maximum depth increased for Node 2304
  WARNING 02: maximum depth increased for Node 2308
  WARNING 02: maximum depth increased for Node 2312
  WARNING 02: maximum depth increased for Node 2314
  WARNING 02: maximum depth increased for Node 2316
  WARNING 02: maximum depth increased for Node 2318
  WARNING 02: maximum depth increased for Node 232
  WARNING 02: maximum depth increased for Node 2320
  WARNING 02: maximum depth increased for Node 2322
  WARNING 02: maximum depth increased for Node 2324
  WARNING 02: maximum depth increased for Node 2326
  WARNING 02: maximum depth increased for Node 2328
  WARNING 02: maximum depth increased for Node 2338
  WARNING 02: maximum depth increased for Node 234
  WARNING 02: maximum depth increased for Node 2344
  WARNING 02: maximum depth increased for Node 2346
  WARNING 02: maximum depth increased for Node 2348
  WARNING 02: maximum depth increased for Node 2350
  WARNING 02: maximum depth increased for Node 2352
  WARNING 02: maximum depth increased for Node 2354
  WARNING 02: maximum depth increased for Node 2356
  WARNING 02: maximum depth increased for Node 2358
  WARNING 02: maximum depth increased for Node 236
  WARNING 02: maximum depth increased for Node 2360
  WARNING 02: maximum depth increased for Node 2362
  WARNING 02: maximum depth increased for Node 2364
  WARNING 02: maximum depth increased for Node 2366
  WARNING 02: maximum depth increased for Node 2368
  WARNING 02: maximum depth increased for Node 2370
  WARNING 02: maximum depth increased for Node 2372
  WARNING 02: maximum depth increased for Node 2378
  WARNING 02: maximum depth increased for Node 2380
  WARNING 02: maximum depth increased for Node 2384
  WARNING 02: maximum depth increased for Node 2386
  WARNING 02: maximum depth increased for Node 2396
  WARNING 02: maximum depth increased for Node 2398
  WARNING 02: maximum depth increased for Node 24
  WARNING 02: maximum depth increased for Node 240
  WARNING 02: maximum depth increased for Node 2400
  WARNING 02: maximum depth increased for Node 2402
  WARNING 02: maximum depth increased for Node 2404
  WARNING 02: maximum depth increased for Node 2406
  WARNING 02: maximum depth increased for Node 2410
  WARNING 02: maximum depth increased for Node 2412
  WARNING 02: maximum depth increased for Node 2414
  WARNING 02: maximum depth increased for Node 2416
  WARNING 02: maximum depth increased for Node 2418
  WARNING 02: maximum depth increased for Node 242
  WARNING 02: maximum depth increased for Node 2420
  WARNING 02: maximum depth increased for Node 2422
  WARNING 02: maximum depth increased for Node 2424
  WARNING 02: maximum depth increased for Node 2426
  WARNING 02: maximum depth increased for Node 2428
  WARNING 02: maximum depth increased for Node 2430
  WARNING 02: maximum depth increased for Node 2432
  WARNING 02: maximum depth increased for Node 2438
  WARNING 02: maximum depth increased for Node 244
  WARNING 02: maximum depth increased for Node 2440
  WARNING 02: maximum depth increased for Node 2444
  WARNING 02: maximum depth increased for Node 2446
  WARNING 02: maximum depth increased for Node 2450
  WARNING 02: maximum depth increased for Node 2452
  WARNING 02: maximum depth increased for Node 2454
  WARNING 02: maximum depth increased for Node 2456
  WARNING 02: maximum depth increased for Node 2462
  WARNING 02: maximum depth increased for Node 2464
  WARNING 02: maximum depth increased for Node 2466
  WARNING 02: maximum depth increased for Node 2468
  WARNING 02: maximum depth increased for Node 2470
  WARNING 02: maximum depth increased for Node 2472
  WARNING 02: maximum depth increased for Node 2478
  WARNING 02: maximum depth increased for Node 248
  WARNING 02: maximum depth increased for Node 2480
  WARNING 02: maximum depth increased for Node 2484
  WARNING 02: maximum depth increased for Node 2486
  WARNING 02: maximum depth increased for Node 2488
  WARNING 02: maximum depth increased for Node 2494
  WARNING 02: maximum depth increased for Node 2496
  WARNING 02: maximum depth increased for Node 2498
  WARNING 02: maximum depth increased for Node 250
  WARNING 02: maximum depth increased for Node 2500
  WARNING 02: maximum depth increased for Node 2504
  WARNING 02: maximum depth increased for Node 2506
  WARNING 02: maximum depth increased for Node 2510
  WARNING 02: maximum depth increased for Node 2512
  WARNING 02: maximum depth increased for Node 2518
  WARNING 02: maximum depth increased for Node 252
  WARNING 02: maximum depth increased for Node 2520
  WARNING 02: maximum depth increased for Node 2522
  WARNING 02: maximum depth increased for Node 2524
  WARNING 02: maximum depth increased for Node 2530
  WARNING 02: maximum depth increased for Node 2532
  WARNING 02: maximum depth increased for Node 2534
  WARNING 02: maximum depth increased for Node 2536
  WARNING 02: maximum depth increased for Node 2538
  WARNING 02: maximum depth increased for Node 254
  WARNING 02: maximum depth increased for Node 2540
  WARNING 02: maximum depth increased for Node 2542
  WARNING 02: maximum depth increased for Node 2544
  WARNING 02: maximum depth increased for Node 2546
  WARNING 02: maximum depth increased for Node 2548
  WARNING 02: maximum depth increased for Node 2550
  WARNING 02: maximum depth increased for Node 2552
  WARNING 02: maximum depth increased for Node 2556
  WARNING 02: maximum depth increased for Node 256
  WARNING 02: maximum depth increased for Node 2560
  WARNING 02: maximum depth increased for Node 2564
  WARNING 02: maximum depth increased for Node 2566
  WARNING 02: maximum depth increased for Node 2568
  WARNING 02: maximum depth increased for Node 2572
  WARNING 02: maximum depth increased for Node 2574
  WARNING 02: maximum depth increased for Node 2576
  WARNING 02: maximum depth increased for Node 2578
  WARNING 02: maximum depth increased for Node 258
  WARNING 02: maximum depth increased for Node 2580
  WARNING 02: maximum depth increased for Node 2582
  WARNING 02: maximum depth increased for Node 2584
  WARNING 02: maximum depth increased for Node 2586
  WARNING 02: maximum depth increased for Node 2590
  WARNING 02: maximum depth increased for Node 2592
  WARNING 02: maximum depth increased for Node 2596
  WARNING 02: maximum depth increased for Node 2598
  WARNING 02: maximum depth increased for Node 260
  WARNING 02: maximum depth increased for Node 2602
  WARNING 02: maximum depth increased for Node 2604
  WARNING 02: maximum depth increased for Node 2606
  WARNING 02: maximum depth increased for Node 2608
  WARNING 02: maximum depth increased for Node 2610
  WARNING 02: maximum depth increased for Node 2614
  WARNING 02: maximum depth increased for Node 2616
  WARNING 02: maximum depth increased for Node 262
  WARNING 02: maximum depth increased for Node 2622
  WARNING 02: maximum depth increased for Node 2624
  WARNING 02: maximum depth increased for Node 2626
  WARNING 02: maximum depth increased for Node 2628
  WARNING 02: maximum depth increased for Node 2632
  WARNING 02: maximum depth increased for Node 2636
  WARNING 02: maximum depth increased for Node 2638
  WARNING 02: maximum depth increased for Node 264
  WARNING 02: maximum depth increased for Node 2640
  WARNING 02: maximum depth increased for Node 2642
  WARNING 02: maximum depth increased for Node 2646
  WARNING 02: maximum depth increased for Node 2648
  WARNING 02: maximum depth increased for Node 2652
  WARNING 02: maximum depth increased for Node 2656
  WARNING 02: maximum depth increased for Node 266
  WARNING 02: maximum depth increased for Node 2662
  WARNING 02: maximum depth increased for Node 2664
  WARNING 02: maximum depth increased for Node 2666
  WARNING 02: maximum depth increased for Node 2668
  WARNING 02: maximum depth increased for Node 2670
  WARNING 02: maximum depth increased for Node 2676
  WARNING 02: maximum depth increased for Node 268
  WARNING 02: maximum depth increased for Node 2680
  WARNING 02: maximum depth increased for Node 2682
  WARNING 02: maximum depth increased for Node 2684
  WARNING 02: maximum depth increased for Node 2688
  WARNING 02: maximum depth increased for Node 2690
  WARNING 02: maximum depth increased for Node 2692
  WARNING 02: maximum depth increased for Node 2694
  WARNING 02: maximum depth increased for Node 2696
  WARNING 02: maximum depth increased for Node 2704
  WARNING 02: maximum depth increased for Node 2708
  WARNING 02: maximum depth increased for Node 2712
  WARNING 02: maximum depth increased for Node 2714
  WARNING 02: maximum depth increased for Node 2716
  WARNING 02: maximum depth increased for Node 2718
  WARNING 02: maximum depth increased for Node 272
  WARNING 02: maximum depth increased for Node 2720
  WARNING 02: maximum depth increased for Node 2724
  WARNING 02: maximum depth increased for Node 2728
  WARNING 02: maximum depth increased for Node 2730
  WARNING 02: maximum depth increased for Node 2732
  WARNING 02: maximum depth increased for Node 2734
  WARNING 02: maximum depth increased for Node 2736
  WARNING 02: maximum depth increased for Node 2738
  WARNING 02: maximum depth increased for Node 2740
  WARNING 02: maximum depth increased for Node 2742
  WARNING 02: maximum depth increased for Node 2748
  WARNING 02: maximum depth increased for Node 2750
  WARNING 02: maximum depth increased for Node 2752
  WARNING 02: maximum depth increased for Node 2754
  WARNING 02: maximum depth increased for Node 2756
  WARNING 02: maximum depth increased for Node 2758
  WARNING 02: maximum depth increased for Node 276
  WARNING 02: maximum depth increased for Node 2764
  WARNING 02: maximum depth increased for Node 2770
  WARNING 02: maximum depth increased for Node 2774
  WARNING 02: maximum depth increased for Node 2784
  WARNING 02: maximum depth increased for Node 2786
  WARNING 02: maximum depth increased for Node 2788
  WARNING 02: maximum depth increased for Node 2790
  WARNING 02: maximum depth increased for Node 2792
  WARNING 02: maximum depth increased for Node 2794
  WARNING 02: maximum depth increased for Node 2798
  WARNING 02: maximum depth increased for Node 28
  WARNING 02: maximum depth increased for Node 280
  WARNING 02: maximum depth increased for Node 2800
  WARNING 02: maximum depth increased for Node 2802
  WARNING 02: maximum depth increased for Node 2804
  WARNING 02: maximum depth increased for Node 2806
  WARNING 02: maximum depth increased for Node 2808
  WARNING 02: maximum depth increased for Node 2810
  WARNING 02: maximum depth increased for Node 2812
  WARNING 02: maximum depth increased for Node 2814
  WARNING 02: maximum depth increased for Node 2818
  WARNING 02: maximum depth increased for Node 282
  WARNING 02: maximum depth increased for Node 2820
  WARNING 02: maximum depth increased for Node 2822
  WARNING 02: maximum depth increased for Node 2828
  WARNING 02: maximum depth increased for Node 2830
  WARNING 02: maximum depth increased for Node 2832
  WARNING 02: maximum depth increased for Node 2836
  WARNING 02: maximum depth increased for Node 2838
  WARNING 02: maximum depth increased for Node 286
  WARNING 02: maximum depth increased for Node 2866
  WARNING 02: maximum depth increased for Node 2868
  WARNING 02: maximum depth increased for Node 2870
  WARNING 02: maximum depth increased for Node 2872
  WARNING 02: maximum depth increased for Node 2876
  WARNING 02: maximum depth increased for Node 2878
  WARNING 02: maximum depth increased for Node 288
  WARNING 02: maximum depth increased for Node 2880
  WARNING 02: maximum depth increased for Node 2882
  WARNING 02: maximum depth increased for Node 2884
  WARNING 02: maximum depth increased for Node 2886
  WARNING 02: maximum depth increased for Node 2888
  WARNING 02: maximum depth increased for Node 2890
  WARNING 02: maximum depth increased for Node 2892
  WARNING 02: maximum depth increased for Node 2894
  WARNING 02: maximum depth increased for Node 2896
  WARNING 02: maximum depth increased for Node 290
  WARNING 02: maximum depth increased for Node 2900
  WARNING 02: maximum depth increased for Node 2902
  WARNING 02: maximum depth increased for Node 2904
  WARNING 02: maximum depth increased for Node 2906
  WARNING 02: maximum depth increased for Node 2908
  WARNING 02: maximum depth increased for Node 2912
  WARNING 02: maximum depth increased for Node 2918
  WARNING 02: maximum depth increased for Node 292
  WARNING 02: maximum depth increased for Node 2920
  WARNING 02: maximum depth increased for Node 2922
  WARNING 02: maximum depth increased for Node 2924
  WARNING 02: maximum depth increased for Node 2926
  WARNING 02: maximum depth increased for Node 2928
  WARNING 02: maximum depth increased for Node 2930
  WARNING 02: maximum depth increased for Node 2932
  WARNING 02: maximum depth increased for Node 2934
  WARNING 02: maximum depth increased for Node 2936
  WARNING 02: maximum depth increased for Node 2938
  WARNING 02: maximum depth increased for Node 294
  WARNING 02: maximum depth increased for Node 2940
  WARNING 02: maximum depth increased for Node 2942
  WARNING 02: maximum depth increased for Node 2944
  WARNING 02: maximum depth increased for Node 2948
  WARNING 02: maximum depth increased for Node 2950
  WARNING 02: maximum depth increased for Node 2952
  WARNING 02: maximum depth increased for Node 2954
  WARNING 02: maximum depth increased for Node 2956
  WARNING 02: maximum depth increased for Node 296
  WARNING 02: maximum depth increased for Node 2960
  WARNING 02: maximum depth increased for Node 2962
  WARNING 02: maximum depth increased for Node 2972
  WARNING 02: maximum depth increased for Node 2976
  WARNING 02: maximum depth increased for Node 2978
  WARNING 02: maximum depth increased for Node 298
  WARNING 02: maximum depth increased for Node 2986
  WARNING 02: maximum depth increased for Node 2988
  WARNING 02: maximum depth increased for Node 2990
  WARNING 02: maximum depth increased for Node 2992
  WARNING 02: maximum depth increased for Node 2994
  WARNING 02: maximum depth increased for Node 2996
  WARNING 02: maximum depth increased for Node 2998
  WARNING 02: maximum depth increased for Node 30
  WARNING 02: maximum depth increased for Node 300
  WARNING 02: maximum depth increased for Node 3000
  WARNING 02: maximum depth increased for Node 3002
  WARNING 02: maximum depth increased for Node 3004
  WARNING 02: maximum depth increased for Node 3006
  WARNING 02: maximum depth increased for Node 3008
  WARNING 02: maximum depth increased for Node 3010
  WARNING 02: maximum depth increased for Node 3012
  WARNING 02: maximum depth increased for Node 3014
  WARNING 02: maximum depth increased for Node 3016
  WARNING 02: maximum depth increased for Node 3018
  WARNING 02: maximum depth increased for Node 302
  WARNING 02: maximum depth increased for Node 3020
  WARNING 02: maximum depth increased for Node 3022
  WARNING 02: maximum depth increased for Node 3024
  WARNING 02: maximum depth increased for Node 3026
  WARNING 02: maximum depth increased for Node 3028
  WARNING 02: maximum depth increased for Node 3030
  WARNING 02: maximum depth increased for Node 3032
  WARNING 02: maximum depth increased for Node 3034
  WARNING 02: maximum depth increased for Node 3036
  WARNING 02: maximum depth increased for Node 3038
  WARNING 02: maximum depth increased for Node 304
  WARNING 02: maximum depth increased for Node 3040
  WARNING 02: maximum depth increased for Node 3042
  WARNING 02: maximum depth increased for Node 3044
  WARNING 02: maximum depth increased for Node 3046
  WARNING 02: maximum depth increased for Node 3048
  WARNING 02: maximum depth increased for Node 3050
  WARNING 02: maximum depth increased for Node 3052
  WARNING 02: maximum depth increased for Node 3054
  WARNING 02: maximum depth increased for Node 3056
  WARNING 02: maximum depth increased for Node 3058
  WARNING 02: maximum depth increased for Node 306
  WARNING 02: maximum depth increased for Node 3064
  WARNING 02: maximum depth increased for Node 3066
  WARNING 02: maximum depth increased for Node 3068
  WARNING 02: maximum depth increased for Node 3070
  WARNING 02: maximum depth increased for Node 3072
  WARNING 02: maximum depth increased for Node 3074
  WARNING 02: maximum depth increased for Node 3078
  WARNING 02: maximum depth increased for Node 308
  WARNING 02: maximum depth increased for Node 3080
  WARNING 02: maximum depth increased for Node 3082
  WARNING 02: maximum depth increased for Node 3084
  WARNING 02: maximum depth increased for Node 3088
  WARNING 02: maximum depth increased for Node 3090
  WARNING 02: maximum depth increased for Node 3092
  WARNING 02: maximum depth increased for Node 3094
  WARNING 02: maximum depth increased for Node 3096
  WARNING 02: maximum depth increased for Node 3098
  WARNING 02: maximum depth increased for Node 310
  WARNING 02: maximum depth increased for Node 3100
  WARNING 02: maximum depth increased for Node 3102
  WARNING 02: maximum depth increased for Node 3104
  WARNING 02: maximum depth increased for Node 3106
  WARNING 02: maximum depth increased for Node 3108
  WARNING 02: maximum depth increased for Node 3110
  WARNING 02: maximum depth increased for Node 3112
  WARNING 02: maximum depth increased for Node 3114
  WARNING 02: maximum depth increased for Node 312
  WARNING 02: maximum depth increased for Node 3122
  WARNING 02: maximum depth increased for Node 3124
  WARNING 02: maximum depth increased for Node 3126
  WARNING 02: maximum depth increased for Node 3130
  WARNING 02: maximum depth increased for Node 3132
  WARNING 02: maximum depth increased for Node 3134
  WARNING 02: maximum depth increased for Node 3136
  WARNING 02: maximum depth increased for Node 3138
  WARNING 02: maximum depth increased for Node 314
  WARNING 02: maximum depth increased for Node 3140
  WARNING 02: maximum depth increased for Node 3142
  WARNING 02: maximum depth increased for Node 3144
  WARNING 02: maximum depth increased for Node 3150
  WARNING 02: maximum depth increased for Node 3154
  WARNING 02: maximum depth increased for Node 3156
  WARNING 02: maximum depth increased for Node 3158
  WARNING 02: maximum depth increased for Node 316
  WARNING 02: maximum depth increased for Node 3164
  WARNING 02: maximum depth increased for Node 3170
  WARNING 02: maximum depth increased for Node 3172
  WARNING 02: maximum depth increased for Node 3174
  WARNING 02: maximum depth increased for Node 3176
  WARNING 02: maximum depth increased for Node 318
  WARNING 02: maximum depth increased for Node 32
  WARNING 02: maximum depth increased for Node 320
  WARNING 02: maximum depth increased for Node 322
  WARNING 02: maximum depth increased for Node 3228
  WARNING 02: maximum depth increased for Node 324
  WARNING 02: maximum depth increased for Node 3248
  WARNING 02: maximum depth increased for Node 3254
  WARNING 02: maximum depth increased for Node 326
  WARNING 02: maximum depth increased for Node 328
  WARNING 02: maximum depth increased for Node 332
  WARNING 02: maximum depth increased for Node 3348
  WARNING 02: maximum depth increased for Node 3350
  WARNING 02: maximum depth increased for Node 336
  WARNING 02: maximum depth increased for Node 3362
  WARNING 02: maximum depth increased for Node 3364
  WARNING 02: maximum depth increased for Node 3372
  WARNING 02: maximum depth increased for Node 3374
  WARNING 02: maximum depth increased for Node 3376
  WARNING 02: maximum depth increased for Node 3382
  WARNING 02: maximum depth increased for Node 3384
  WARNING 02: maximum depth increased for Node 3396
  WARNING 02: maximum depth increased for Node 34
  WARNING 02: maximum depth increased for Node 342
  WARNING 02: maximum depth increased for Node 344
  WARNING 02: maximum depth increased for Node 3452
  WARNING 02: maximum depth increased for Node 348
  WARNING 02: maximum depth increased for Node 350
  WARNING 02: maximum depth increased for Node 3512
  WARNING 02: maximum depth increased for Node 3518
  WARNING 02: maximum depth increased for Node 352
  WARNING 02: maximum depth increased for Node 354
  WARNING 02: maximum depth increased for Node 356
  WARNING 02: maximum depth increased for Node 358
  WARNING 02: maximum depth increased for Node 3588
  WARNING 02: maximum depth increased for Node 3590
  WARNING 02: maximum depth increased for Node 36
  WARNING 02: maximum depth increased for Node 364
  WARNING 02: maximum depth increased for Node 366
  WARNING 02: maximum depth increased for Node 3666
  WARNING 02: maximum depth increased for Node 368
  WARNING 02: maximum depth increased for Node 370
  WARNING 02: maximum depth increased for Node 3730
  WARNING 02: maximum depth increased for Node 3732
  WARNING 02: maximum depth increased for Node 3740
  WARNING 02: maximum depth increased for Node 3742
  WARNING 02: maximum depth increased for Node 3770
  WARNING 02: maximum depth increased for Node 388
  WARNING 02: maximum depth increased for Node 392
  WARNING 02: maximum depth increased for Node 4006
  WARNING 02: maximum depth increased for Node 404
  WARNING 02: maximum depth increased for Node 406
  WARNING 02: maximum depth increased for Node 410
  WARNING 02: maximum depth increased for Node 4110
  WARNING 02: maximum depth increased for Node 412
  WARNING 02: maximum depth increased for Node 414
  WARNING 02: maximum depth increased for Node 4170
  WARNING 02: maximum depth increased for Node 4174
  WARNING 02: maximum depth increased for Node 418
  WARNING 02: maximum depth increased for Node 4188
  WARNING 02: maximum depth increased for Node 42
  WARNING 02: maximum depth increased for Node 420
  WARNING 02: maximum depth increased for Node 4216
  WARNING 02: maximum depth increased for Node 4218
  WARNING 02: maximum depth increased for Node 422
  WARNING 02: maximum depth increased for Node 4220
  WARNING 02: maximum depth increased for Node 4222
  WARNING 02: maximum depth increased for Node 4228
  WARNING 02: maximum depth increased for Node 4230
  WARNING 02: maximum depth increased for Node 424
  WARNING 02: maximum depth increased for Node 4248
  WARNING 02: maximum depth increased for Node 426
  WARNING 02: maximum depth increased for Node 428
  WARNING 02: maximum depth increased for Node 430
  WARNING 02: maximum depth increased for Node 4308
  WARNING 02: maximum depth increased for Node 432
  WARNING 02: maximum depth increased for Node 434
  WARNING 02: maximum depth increased for Node 436
  WARNING 02: maximum depth increased for Node 4380
  WARNING 02: maximum depth increased for Node 4388
  WARNING 02: maximum depth increased for Node 4398
  WARNING 02: maximum depth increased for Node 44
  WARNING 02: maximum depth increased for Node 440
  WARNING 02: maximum depth increased for Node 4412
  WARNING 02: maximum depth increased for Node 442
  WARNING 02: maximum depth increased for Node 4452
  WARNING 02: maximum depth increased for Node 446
  WARNING 02: maximum depth increased for Node 448
  WARNING 02: maximum depth increased for Node 4492
  WARNING 02: maximum depth increased for Node 450
  WARNING 02: maximum depth increased for Node 4504
  WARNING 02: maximum depth increased for Node 4510
  WARNING 02: maximum depth increased for Node 4524
  WARNING 02: maximum depth increased for Node 454
  WARNING 02: maximum depth increased for Node 456
  WARNING 02: maximum depth increased for Node 4568
  WARNING 02: maximum depth increased for Node 458
  WARNING 02: maximum depth increased for Node 4588
  WARNING 02: maximum depth increased for Node 4594
  WARNING 02: maximum depth increased for Node 46
  WARNING 02: maximum depth increased for Node 460
  WARNING 02: maximum depth increased for Node 462
  WARNING 02: maximum depth increased for Node 464
  WARNING 02: maximum depth increased for Node 4658
  WARNING 02: maximum depth increased for Node 466
  WARNING 02: maximum depth increased for Node 4660
  WARNING 02: maximum depth increased for Node 4662
  WARNING 02: maximum depth increased for Node 470
  WARNING 02: maximum depth increased for Node 4717
  WARNING 02: maximum depth increased for Node 472
  WARNING 02: maximum depth increased for Node 4738
  WARNING 02: maximum depth increased for Node 474
  WARNING 02: maximum depth increased for Node 4740
  WARNING 02: maximum depth increased for Node 4748
  WARNING 02: maximum depth increased for Node 476
  WARNING 02: maximum depth increased for Node 4762
  WARNING 02: maximum depth increased for Node 478
  WARNING 02: maximum depth increased for Node 4780
  WARNING 02: maximum depth increased for Node 48
  WARNING 02: maximum depth increased for Node 482
  WARNING 02: maximum depth increased for Node 4830
  WARNING 02: maximum depth increased for Node 486
  WARNING 02: maximum depth increased for Node 488
  WARNING 02: maximum depth increased for Node 4880
  WARNING 02: maximum depth increased for Node 4882
  WARNING 02: maximum depth increased for Node 490
  WARNING 02: maximum depth increased for Node 494
  WARNING 02: maximum depth increased for Node 4956
  WARNING 02: maximum depth increased for Node 496
  WARNING 02: maximum depth increased for Node 4966
  WARNING 02: maximum depth increased for Node 498
  WARNING 02: maximum depth increased for Node 50
  WARNING 02: maximum depth increased for Node 500
  WARNING 02: maximum depth increased for Node 502
  WARNING 02: maximum depth increased for Node 504
  WARNING 02: maximum depth increased for Node 5042
  WARNING 02: maximum depth increased for Node 506
  WARNING 02: maximum depth increased for Node 5060
  WARNING 02: maximum depth increased for Node 5076
  WARNING 02: maximum depth increased for Node 508
  WARNING 02: maximum depth increased for Node 5080
  WARNING 02: maximum depth increased for Node 510
  WARNING 02: maximum depth increased for Node 5128
  WARNING 02: maximum depth increased for Node 514
  WARNING 02: maximum depth increased for Node 5140
  WARNING 02: maximum depth increased for Node 5144
  WARNING 02: maximum depth increased for Node 5150
  WARNING 02: maximum depth increased for Node 5158
  WARNING 02: maximum depth increased for Node 516
  WARNING 02: maximum depth increased for Node 518
  WARNING 02: maximum depth increased for Node 52
  WARNING 02: maximum depth increased for Node 520
  WARNING 02: maximum depth increased for Node 524
  WARNING 02: maximum depth increased for Node 5240
  WARNING 02: maximum depth increased for Node 526
  WARNING 02: maximum depth increased for Node 528
  WARNING 02: maximum depth increased for Node 5298
  WARNING 02: maximum depth increased for Node 530
  WARNING 02: maximum depth increased for Node 5302
  WARNING 02: maximum depth increased for Node 5306
  WARNING 02: maximum depth increased for Node 5308
  WARNING 02: maximum depth increased for Node 5312
  WARNING 02: maximum depth increased for Node 5318
  WARNING 02: maximum depth increased for Node 532
  WARNING 02: maximum depth increased for Node 5320
  WARNING 02: maximum depth increased for Node 534
  WARNING 02: maximum depth increased for Node 536
  WARNING 02: maximum depth increased for Node 5364
  WARNING 02: maximum depth increased for Node 538
  WARNING 02: maximum depth increased for Node 5388
  WARNING 02: maximum depth increased for Node 5390
  WARNING 02: maximum depth increased for Node 54
  WARNING 02: maximum depth increased for Node 540
  WARNING 02: maximum depth increased for Node 5404
  WARNING 02: maximum depth increased for Node 5406
  WARNING 02: maximum depth increased for Node 5408
  WARNING 02: maximum depth increased for Node 542
  WARNING 02: maximum depth increased for Node 546
  WARNING 02: maximum depth increased for Node 548
  WARNING 02: maximum depth increased for Node 5482
  WARNING 02: maximum depth increased for Node 552
  WARNING 02: maximum depth increased for Node 554
  WARNING 02: maximum depth increased for Node 556
  WARNING 02: maximum depth increased for Node 558
  WARNING 02: maximum depth increased for Node 56
  WARNING 02: maximum depth increased for Node 560
  WARNING 02: maximum depth increased for Node 562
  WARNING 02: maximum depth increased for Node 566
  WARNING 02: maximum depth increased for Node 568
  WARNING 02: maximum depth increased for Node 570
  WARNING 02: maximum depth increased for Node 576
  WARNING 02: maximum depth increased for Node 578
  WARNING 02: maximum depth increased for Node 58
  WARNING 02: maximum depth increased for Node 580
  WARNING 02: maximum depth increased for Node 582
  WARNING 02: maximum depth increased for Node 584
  WARNING 02: maximum depth increased for Node 586
  WARNING 02: maximum depth increased for Node 588
  WARNING 02: maximum depth increased for Node 590
  WARNING 02: maximum depth increased for Node 594
  WARNING 02: maximum depth increased for Node 598
  WARNING 02: maximum depth increased for Node 60
  WARNING 02: maximum depth increased for Node 604
  WARNING 02: maximum depth increased for Node 608
  WARNING 02: maximum depth increased for Node 610
  WARNING 02: maximum depth increased for Node 614
  WARNING 02: maximum depth increased for Node 618
  WARNING 02: maximum depth increased for Node 62
  WARNING 02: maximum depth increased for Node 620
  WARNING 02: maximum depth increased for Node 624
  WARNING 02: maximum depth increased for Node 626
  WARNING 02: maximum depth increased for Node 628
  WARNING 02: maximum depth increased for Node 632
  WARNING 02: maximum depth increased for Node 634
  WARNING 02: maximum depth increased for Node 636
  WARNING 02: maximum depth increased for Node 638
  WARNING 02: maximum depth increased for Node 64
  WARNING 02: maximum depth increased for Node 640
  WARNING 02: maximum depth increased for Node 642
  WARNING 02: maximum depth increased for Node 644
  WARNING 02: maximum depth increased for Node 648
  WARNING 02: maximum depth increased for Node 650
  WARNING 02: maximum depth increased for Node 652
  WARNING 02: maximum depth increased for Node 654
  WARNING 02: maximum depth increased for Node 66
  WARNING 02: maximum depth increased for Node 662
  WARNING 02: maximum depth increased for Node 664
  WARNING 02: maximum depth increased for Node 666
  WARNING 02: maximum depth increased for Node 670
  WARNING 02: maximum depth increased for Node 672
  WARNING 02: maximum depth increased for Node 674
  WARNING 02: maximum depth increased for Node 676
  WARNING 02: maximum depth increased for Node 678
  WARNING 02: maximum depth increased for Node 68
  WARNING 02: maximum depth increased for Node 680
  WARNING 02: maximum depth increased for Node 682
  WARNING 02: maximum depth increased for Node 684
  WARNING 02: maximum depth increased for Node 686
  WARNING 02: maximum depth increased for Node 688
  WARNING 02: maximum depth increased for Node 690
  WARNING 02: maximum depth increased for Node 692
  WARNING 02: maximum depth increased for Node 694
  WARNING 02: maximum depth increased for Node 696
  WARNING 02: maximum depth increased for Node 698
  WARNING 02: maximum depth increased for Node 70
  WARNING 02: maximum depth increased for Node 700
  WARNING 02: maximum depth increased for Node 704
  WARNING 02: maximum depth increased for Node 706
  WARNING 02: maximum depth increased for Node 710
  WARNING 02: maximum depth increased for Node 714
  WARNING 02: maximum depth increased for Node 716
  WARNING 02: maximum depth increased for Node 718
  WARNING 02: maximum depth increased for Node 72
  WARNING 02: maximum depth increased for Node 720
  WARNING 02: maximum depth increased for Node 726
  WARNING 02: maximum depth increased for Node 728
  WARNING 02: maximum depth increased for Node 732
  WARNING 02: maximum depth increased for Node 738
  WARNING 02: maximum depth increased for Node 74
  WARNING 02: maximum depth increased for Node 740
  WARNING 02: maximum depth increased for Node 742
  WARNING 02: maximum depth increased for Node 744
  WARNING 02: maximum depth increased for Node 746
  WARNING 02: maximum depth increased for Node 748
  WARNING 02: maximum depth increased for Node 750
  WARNING 02: maximum depth increased for Node 752
  WARNING 02: maximum depth increased for Node 754
  WARNING 02: maximum depth increased for Node 756
  WARNING 02: maximum depth increased for Node 758
  WARNING 02: maximum depth increased for Node 76
  WARNING 02: maximum depth increased for Node 760
  WARNING 02: maximum depth increased for Node 762
  WARNING 02: maximum depth increased for Node 764
  WARNING 02: maximum depth increased for Node 766
  WARNING 02: maximum depth increased for Node 770
  WARNING 02: maximum depth increased for Node 772
  WARNING 02: maximum depth increased for Node 774
  WARNING 02: maximum depth increased for Node 776
  WARNING 02: maximum depth increased for Node 778
  WARNING 02: maximum depth increased for Node 780
  WARNING 02: maximum depth increased for Node 782
  WARNING 02: maximum depth increased for Node 786
  WARNING 02: maximum depth increased for Node 790
  WARNING 02: maximum depth increased for Node 796
  WARNING 02: maximum depth increased for Node 80
  WARNING 02: maximum depth increased for Node 800
  WARNING 02: maximum depth increased for Node 802
  WARNING 02: maximum depth increased for Node 804
  WARNING 02: maximum depth increased for Node 806
  WARNING 02: maximum depth increased for Node 808
  WARNING 02: maximum depth increased for Node 810
  WARNING 02: maximum depth increased for Node 812
  WARNING 02: maximum depth increased for Node 814
  WARNING 02: maximum depth increased for Node 816
  WARNING 02: maximum depth increased for Node 818
  WARNING 02: maximum depth increased for Node 82
  WARNING 02: maximum depth increased for Node 820
  WARNING 02: maximum depth increased for Node 822
  WARNING 02: maximum depth increased for Node 824
  WARNING 02: maximum depth increased for Node 826
  WARNING 02: maximum depth increased for Node 830
  WARNING 02: maximum depth increased for Node 834
  WARNING 02: maximum depth increased for Node 838
  WARNING 02: maximum depth increased for Node 84
  WARNING 02: maximum depth increased for Node 840
  WARNING 02: maximum depth increased for Node 842
  WARNING 02: maximum depth increased for Node 846
  WARNING 02: maximum depth increased for Node 850
  WARNING 02: maximum depth increased for Node 852
  WARNING 02: maximum depth increased for Node 854
  WARNING 02: maximum depth increased for Node 856
  WARNING 02: maximum depth increased for Node 858
  WARNING 02: maximum depth increased for Node 86
  WARNING 02: maximum depth increased for Node 860
  WARNING 02: maximum depth increased for Node 862
  WARNING 02: maximum depth increased for Node 864
  WARNING 02: maximum depth increased for Node 866
  WARNING 02: maximum depth increased for Node 868
  WARNING 02: maximum depth increased for Node 870
  WARNING 02: maximum depth increased for Node 872
  WARNING 02: maximum depth increased for Node 874
  WARNING 02: maximum depth increased for Node 876
  WARNING 02: maximum depth increased for Node 878
  WARNING 02: maximum depth increased for Node 88
  WARNING 02: maximum depth increased for Node 880
  WARNING 02: maximum depth increased for Node 882
  WARNING 02: maximum depth increased for Node 884
  WARNING 02: maximum depth increased for Node 886
  WARNING 02: maximum depth increased for Node 888
  WARNING 02: maximum depth increased for Node 890
  WARNING 02: maximum depth increased for Node 894
  WARNING 02: maximum depth increased for Node 896
  WARNING 02: maximum depth increased for Node 90
  WARNING 02: maximum depth increased for Node 900
  WARNING 02: maximum depth increased for Node 902
  WARNING 02: maximum depth increased for Node 904
  WARNING 02: maximum depth increased for Node 906
  WARNING 02: maximum depth increased for Node 908
  WARNING 02: maximum depth increased for Node 910
  WARNING 02: maximum depth increased for Node 912
  WARNING 02: maximum depth increased for Node 918
  WARNING 02: maximum depth increased for Node 92
  WARNING 02: maximum depth increased for Node 920
  WARNING 02: maximum depth increased for Node 922
  WARNING 02: maximum depth increased for Node 924
  WARNING 02: maximum depth increased for Node 926
  WARNING 02: maximum depth increased for Node 930
  WARNING 02: maximum depth increased for Node 934
  WARNING 02: maximum depth increased for Node 936
  WARNING 02: maximum depth increased for Node 938
  WARNING 02: maximum depth increased for Node 94
  WARNING 02: maximum depth increased for Node 944
  WARNING 02: maximum depth increased for Node 946
  WARNING 02: maximum depth increased for Node 948
  WARNING 02: maximum depth increased for Node 950
  WARNING 02: maximum depth increased for Node 952
  WARNING 02: maximum depth increased for Node 956
  WARNING 02: maximum depth increased for Node 958
  WARNING 02: maximum depth increased for Node 96
  WARNING 02: maximum depth increased for Node 960
  WARNING 02: maximum depth increased for Node 962
  WARNING 02: maximum depth increased for Node 964
  WARNING 02: maximum depth increased for Node 966
  WARNING 02: maximum depth increased for Node 968
  WARNING 02: maximum depth increased for Node 970
  WARNING 02: maximum depth increased for Node 972
  WARNING 02: maximum depth increased for Node 974
  WARNING 02: maximum depth increased for Node 98
  WARNING 02: maximum depth increased for Node 982
  WARNING 02: maximum depth increased for Node 984
  WARNING 02: maximum depth increased for Node 986
  WARNING 02: maximum depth increased for Node 988
  WARNING 02: maximum depth increased for Node 990
  WARNING 02: maximum depth increased for Node 992
  WARNING 02: maximum depth increased for Node 994
  WARNING 02: maximum depth increased for Node 996
  WARNING 02: maximum depth increased for Node 998
  WARNING 02: maximum depth increased for Node EXNODE10
  
  ****************
  Analysis Options
  ****************
  Flow Units ............... GPM
  Process Models:
    Rainfall/Runoff ........ NO
    RDII ................... NO
    Snowmelt ............... NO
    Groundwater ............ NO
    Flow Routing ........... YES
    Ponding Allowed ........ YES
    Water Quality .......... NO
  Flow Routing Method ...... DYNWAVE
  Surcharge Method ......... EXTRAN
  Starting Date ............ 01/01/2002 00:00:00
  Ending Date .............. 01/01/2002 04:00:00
  Antecedent Dry Days ...... 0.0
  Report Time Step ......... 00:05:00
  Routing Time Step ........ 30.00 sec
  Variable Time Step ....... NO
  Maximum Trials ........... 8
  Number of Threads ........ 1
  Head Tolerance ........... 0.005000 ft
  
  
  **************************        Volume        Volume
  Flow Routing Continuity        acre-feet      10^6 gal
  **************************     ---------     ---------
  Dry Weather Inflow .......         0.815         0.266
  Wet Weather Inflow .......         0.000         0.000
  Groundwater Inflow .......         0.000         0.000
  RDII Inflow ..............         0.000         0.000
  External Inflow ..........         0.126         0.041
  External Outflow .........         7.623         2.484
  Flooding Loss ............      1300.212       423.694
  Evaporation Loss .........         0.000         0.000
  Exfiltration Loss ........         0.000         0.000
  Initial Stored Volume ....    205731.830     67040.790
  Final Stored Volume ......    205730.868     67040.477
  Continuity Error (%) .....        -0.635
  
  
  *************************
  Highest Continuity Errors
  *************************
  Node 4036 (-1246.62%)
  Node PS-JAIL (-1028.70%)
  Node 3206 (-277.13%)
  Node 4022 (-276.75%)
  Node 3372 (-240.09%)
  
  
  ********************************
  Highest Flow Instability Indexes
  ********************************
  Link 1729 (148)
  Link 4201 (146)
  Link 2391 (142)
  Link 3783 (141)
  Link 3947 (140)
  
  
  *********************************
  Most Frequent Nonconverging Nodes
  *********************************
  Node 1142 (100.00%)
  Node 1684 (100.00%)
  Node 1756 (100.00%)
  Node 2228 (100.00%)
  Node 2394 (100.00%)
  
  
  *************************
  Routing Time Step Summary
  *************************
  Minimum Time Step           :    29.00 sec
  Average Time Step           :    30.00 sec
  Maximum Time Step           :    30.00 sec
  % of Time in Steady State   :     0.00
  Average Iterations per Step :     8.00
  % of Steps Not Converging   :   100.00
  
  
  ******************
  Node Depth Summary
  ******************
  
  ---------------------------------------------------------------------------------
                                 Average  Maximum  Maximum  Time of Max    Reported
                                   Depth    Depth      HGL   Occurrence   Max Depth
  Node                 Type         Feet     Feet     Feet  days hr:min        Feet
  ---------------------------------------------------------------------------------
  10                   JUNCTION     0.00     0.00   130.12     0  00:00        0.00
  100                  JUNCTION     0.00     0.00   127.36     0  00:00        0.00
  1000                 JUNCTION     0.00     0.00   101.61     0  00:00        0.00
  1002                 JUNCTION     0.00     0.00   109.86     0  00:00        0.00
  1004                 JUNCTION     0.00     0.00   106.12     0  00:00        0.00
  1006                 JUNCTION     0.00     0.00   104.59     0  00:00        0.00
  1008                 JUNCTION     0.00     0.00   111.37     0  00:00        0.00
  1010                 JUNCTION     0.00     0.00   112.40     0  00:00        0.00
  1012                 JUNCTION     0.00     0.00   103.68     0  00:00        0.00
  1014                 JUNCTION     0.00     0.00   103.16     0  00:00        0.00
  1016                 JUNCTION     0.00     0.00   102.80     0  00:00        0.00
  1018                 JUNCTION     0.00     0.00   102.44     0  00:00        0.00
  102                  JUNCTION     0.00     0.00   128.18     0  00:00        0.00
  1020                 JUNCTION     0.00     0.00   101.78     0  00:00        0.00
  1022                 JUNCTION     0.00     0.00   100.82     0  00:00        0.00
  1024                 JUNCTION     0.00     0.00   111.91     0  00:00        0.00
  1026                 JUNCTION     0.00     0.00    98.56     0  00:00        0.00
  1028                 JUNCTION     0.00     0.00    99.17     0  00:00        0.00
  1030                 JUNCTION     0.00     0.00   100.19     0  00:00        0.00
  1032                 JUNCTION     0.00     0.00   111.83     0  00:00        0.00
  1034                 JUNCTION     0.00     0.00   102.04     0  00:00        0.00
  1036                 JUNCTION     0.00     0.00    97.10     0  00:00        0.00
  1038                 JUNCTION     0.00     0.00    91.00     0  00:00        0.00
  104                  JUNCTION     0.19     1.10   120.84     0  00:00        0.50
  1040                 JUNCTION     0.00     0.00    82.70     0  00:00        0.00
  1042                 JUNCTION     0.00     0.11    52.72     0  00:02        0.01
  1044                 JUNCTION     0.00     0.00    69.70     0  00:00        0.00
  1046                 JUNCTION     0.46     0.64    45.24     0  00:02        0.50
  1048                 JUNCTION     0.72     1.10    42.97     0  00:01        0.83
  1050                 JUNCTION     0.00     0.00   113.51     0  00:00        0.00
  1052                 JUNCTION     0.00     0.00   115.51     0  00:00        0.00
  1054                 JUNCTION     0.00     0.00   112.79     0  00:00        0.00
  1056                 JUNCTION     0.00     0.00   112.15     0  00:00        0.00
  1058                 JUNCTION     0.00     0.00   111.60     0  00:00        0.00
  106                  JUNCTION     0.20     1.42   122.42     0  00:00        0.46
  1060                 JUNCTION     0.00     0.00   110.74     0  00:00        0.00
  1062                 JUNCTION     0.00     0.00   109.69     0  00:00        0.00
  1064                 JUNCTION     0.00     0.00   108.37     0  00:00        0.00
  1066                 JUNCTION     0.00     0.00   107.17     0  00:00        0.00
  1068                 JUNCTION     0.00     0.00   106.47     0  00:00        0.00
  1070                 JUNCTION     0.00     0.00   105.57     0  00:00        0.00
  1072                 JUNCTION     0.00     0.00   102.86     0  00:00        0.00
  1074                 JUNCTION     0.00     0.00    85.71     0  00:00        0.00
  1076                 JUNCTION     0.00     0.00    96.56     0  00:00        0.00
  1078                 JUNCTION     0.00     0.00    43.89     0  00:00        0.00
  108                  JUNCTION     0.00     0.00   127.87     0  00:00        0.00
  1080                 JUNCTION     0.00     0.00    41.81     0  00:00        0.00
  1082                 JUNCTION     0.00     0.01    40.34     0  00:02        0.01
  1084                 JUNCTION     0.73     0.81    40.32     0  00:07        0.80
  1086                 JUNCTION     0.70     0.77    38.90     0  03:55        0.77
  1088                 JUNCTION     0.70     0.78    37.80     0  03:55        0.78
  1090                 JUNCTION     0.00     0.00   117.00     0  00:00        0.00
  1092                 JUNCTION     0.00     0.00   118.12     0  00:00        0.00
  1094                 JUNCTION     0.00     0.00   114.75     0  00:00        0.00
  1096                 JUNCTION     0.00     0.00   114.16     0  00:00        0.00
  1098                 JUNCTION     0.00     0.00   113.60     0  00:00        0.00
  110                  JUNCTION     0.19     1.10   123.90     0  00:00        0.19
  1100                 JUNCTION     0.00     0.00   113.05     0  00:00        0.00
  1102                 JUNCTION     0.00     0.00   112.50     0  00:00        0.00
  1104                 JUNCTION     0.00     0.00   109.00     0  00:00        0.00
  1106                 JUNCTION     0.00     0.00   107.44     0  00:00        0.00
  1108                 JUNCTION     0.00     0.00   106.92     0  00:00        0.00
  1110                 JUNCTION     0.00     0.00   106.40     0  00:00        0.00
  1112                 JUNCTION     0.00     0.00   105.46     0  00:00        0.00
  1114                 JUNCTION     0.00     0.00   105.36     0  00:00        0.00
  1116                 JUNCTION     0.00     0.00   104.82     0  00:00        0.00
  1118                 JUNCTION     0.00     0.00   103.46     0  00:00        0.00
  112                  JUNCTION     0.00     0.07   123.91     0  00:01        0.01
  1120                 JUNCTION     0.00     0.00   102.32     0  00:00        0.00
  1122                 JUNCTION     0.00     0.00   101.34     0  00:00        0.00
  1124                 JUNCTION     0.00     0.00    85.21     0  00:00        0.00
  1126                 JUNCTION     0.00     0.00    45.41     0  00:00        0.00
  1128                 JUNCTION     0.00     0.00   106.14     0  00:00        0.00
  1130                 JUNCTION     0.00     0.00   107.02     0  00:00        0.00
  1132                 JUNCTION     0.00     0.00   109.77     0  00:00        0.00
  1134                 JUNCTION     0.00     0.00   110.21     0  00:00        0.00
  1136                 JUNCTION     0.00     0.00   111.01     0  00:00        0.00
  1138                 JUNCTION     0.00     0.00   111.05     0  00:00        0.00
  114                  JUNCTION     0.18     0.53   124.23     0  00:00        0.18
  1140                 JUNCTION     0.20     0.21    20.18     0  00:29        0.21
  1144                 JUNCTION     0.15     0.33     3.70     0  00:06        0.29
  1146                 JUNCTION     0.25     0.54     5.63     0  00:06        0.48
  1148                 JUNCTION     0.25     1.10     7.85     0  00:03        0.77
  1150                 JUNCTION     0.29     0.52     8.11     0  00:03        0.32
  1152                 JUNCTION     0.28     0.29     8.85     0  03:59        0.29
  1154                 JUNCTION     0.20     0.21    10.61     0  03:59        0.21
  1156                 JUNCTION     0.31     0.32    11.32     0  03:59        0.32
  1158                 JUNCTION     0.28     0.33    12.96     0  00:08        0.29
[...]
  3683                        3.32      3.32      3.99      0.01         0.01
  3689                        0.03      0.03      4.00      0.01         0.01
  3697                        0.01      0.01      3.56      0.01         0.01
  3703                        2.73      2.73      2.91      0.01         0.01
  3705                        2.73      3.12      3.04      2.40         1.27
  3713                        1.77      2.77      2.97      2.88         1.15
  3735                        3.87      3.87      3.94      3.91         0.01
  3743                        3.60      3.60      4.00      0.16         0.01
  3749                        3.11      3.15      3.67      3.02         1.73
  3755                        0.01      0.01      4.00      0.01         0.01
  3759                        0.81      1.01      0.83      0.06         0.25
  3763                        3.60      3.60      3.60      0.47         2.08
  3765                        0.21      0.24      0.23      0.23         0.13
  3767                        0.49      0.50      0.50      0.15         0.26
  3769                        3.97      3.98      3.97      3.11         1.77
  3771                        3.22      3.39      3.52      2.86         1.74
  3773                        3.17      3.32      3.73      3.14         2.20
  3775                        4.00      4.00      4.00      0.03         1.10
  3777                        2.28      2.28      2.28      0.01         0.77
  3779                        3.82      3.86      3.88      0.25         1.41
  3781                        3.91      3.92      3.91      0.09         2.00
  3783                        3.99      4.00      3.99      0.03         1.98
  3789                        2.18      2.18      4.00      0.01         0.01
  3793                        0.01      0.01      2.11      0.01         0.01
  3797                        0.01      0.01      1.72      0.01         0.01
  3799                        1.72      1.72      2.47      0.01         0.01
  3801                        2.67      2.67      3.96      0.01         0.01
  3803                        2.67      2.67      3.53      0.01         0.01
  3805                        2.67      2.67      3.50      0.01         0.01
  3807                        2.67      2.67      2.99      0.01         0.01
  3809                        2.47      2.47      2.99      0.01         0.01
  3925                        2.78      2.78      4.00      0.01         0.01
  3935                        3.98      3.99      3.99      1.98         1.33
  3947                        0.01      0.01      4.00      0.01         0.01
  3957                        2.76      2.76      2.97      0.01         0.01
  3959                        0.01      0.01      2.48      0.01         0.01
  3965                        3.81      3.85      3.89      3.32         3.18
  3967                        3.86      3.86      4.00      0.01         0.01
  3983                        2.07      2.07      2.07      3.86         0.99
  3985                        0.01      0.01      1.94      0.01         0.01
  4139                        0.01      0.01      3.02      0.01         0.01
  4141                        0.01      3.02      0.01      3.52         0.01
  4143                        0.01      0.01      0.01      3.46         0.01
  4181                        0.01      0.01      3.70      0.01         0.01
  4193                        0.01      0.01      3.72      0.01         0.01
  4195                        3.72      3.72      3.77      0.01         0.01
  423                         0.01      0.01      0.01      0.01         0.01
  4241                        0.01      0.01      2.72      0.01         0.01
  4309                        0.01      0.01      3.81      0.01         0.01
  4387                        0.01      0.01      3.63      0.01         0.01
  4389                        0.01      0.01      1.82      0.01         0.01
  4409                        0.01      0.01      2.13      0.01         0.01
  4411                        0.01      0.01      1.42      0.01         0.01
  4413                        0.01      0.01      1.25      0.01         0.01
  4417                        3.99      4.00      3.99      0.01         0.07
  4463                        2.50      2.50      3.98      0.01         0.01
  4517                        0.01      0.01      3.91      0.01         0.01
  4641                        0.01      0.01      3.38      0.01         0.01
  4645                        0.01      0.01      0.01      0.01         0.01
  4649                        0.01      0.01      0.01      0.01         0.01
  4723                        0.01      0.01      0.01      0.01         0.01
  4729                        0.01      0.01      4.00      0.01         0.01
  473                         0.01      0.01      0.01      0.01         0.01
  4733                        0.91      0.91      1.69      0.01         0.01
  475                         0.01      0.01      0.01      0.01         0.01
  4873                        0.01      0.03      0.01      0.03         0.01
  4901                        3.34      3.37      3.34      3.37         3.34
  4903                        0.01      3.34      0.01      3.36         0.01
  4905                        0.01      0.01      0.01      3.32         0.01
  4907                        0.01      0.01      0.01      3.28         0.01
  4957                        4.00      4.00      4.00      0.01         0.01
  4959                        3.72      4.00      3.72      4.00         3.72
  4961                        3.72      3.72      3.97      0.01         0.01
  4963                        3.97      3.97      4.00      3.99         3.97
  5025                        0.01      0.01      0.32      0.01         0.01
  5027                        0.32      0.32      3.27      0.01         0.01
  5035                        4.00      4.00      4.00      3.96         3.95
  5039                        0.01      0.01      4.00      0.01         0.01
  5041                        1.69      1.69      2.99      0.01         0.01
  5045                        0.01      0.01      4.00      0.01         0.01
  5049                        0.01      0.01      3.87      0.01         0.01
  5051                        0.01      0.01      4.00      0.01         0.01
  5053                        0.01      0.01      4.00      0.01         0.01
  5055                        3.55      3.55      3.87      0.01         0.01
  5057                        0.01      0.01      3.51      0.01         0.01
  5059                        0.01      0.01      3.24      0.01         0.01
  5061                        0.01      0.01      3.24      0.01         0.01
  5063                        0.01      0.01      4.00      0.01         0.01
  5065                        3.41      3.99      3.42      2.21         1.74
  5067                        0.01      0.01      3.62      0.01         0.01
  5069                        1.67      1.67      2.76      0.01         0.01
  5071                        0.01      0.01      3.70      0.01         0.01
  5073                        0.01      0.01      3.97      0.01         0.01
  5077                        3.45      3.46      3.91      2.62         0.95
  5079                        0.51      0.55      3.96      0.14         0.09
  5081                        3.87      3.88      3.99      0.06         0.01
  5083                        3.09      3.46      3.32      2.81         1.71
  5085                        3.12      3.50      3.32      2.61         0.97
  5087                        3.26      3.50      3.32      3.26         2.70
  5089                        3.28      3.34      3.32      3.05         0.08
  509                         0.01      0.03      0.01      0.03         0.01
  5091                        3.08      3.38      3.08      3.38         3.08
  5097                        0.01      0.01      2.40      0.01         0.01
  5167                        0.01      0.01      1.02      0.01         0.01
  5175                        2.94      2.94      3.37      0.01         0.01
  5177                        3.99      4.00      3.99      0.08         0.07
  565                         0.01      0.01      0.01      0.02         0.01
  567                         0.01      0.01      0.01      0.01         0.01
  569                         0.01      0.01      0.01      0.01         0.01
  581                         0.01      0.01      0.01      0.01         0.01
  583                         0.01      0.01      0.01      0.01         0.01
  585                         0.01      0.01      0.01      0.01         0.01
  609                         0.01      0.01      0.01      0.01         0.01
  611                         0.01      0.05      0.01      0.05         0.01
  615                         0.01      0.01      0.03      0.01         0.01
  617                         0.01      0.01      0.01      0.01         0.01
  619                         0.01      3.03      0.01      3.07         0.01
  627                         0.01      0.01      0.01      0.01         0.01
  63                          0.01      0.01      0.04      0.01         0.01
  637                         0.01      0.01      0.03      0.23         0.01
  641                         0.04      0.04      0.19      0.20         0.01
  643                         0.17      0.28      0.19      0.37         0.17
  645                         0.22      0.27      0.25      0.39         0.22
  647                         0.01      0.01      0.01      0.01         0.01
  65                          0.01      0.01      0.01      0.01         0.01
  657                         0.01      0.28      0.01      0.27         0.01
  659                         0.01      0.01      0.01      0.25         0.01
  667                         0.01      0.01      0.01      0.01         0.01
  67                          0.03      0.04      0.03      0.05         0.03
  671                         0.23      0.25      0.23      0.24         0.23
  673                         0.01      0.01      0.22      0.01         0.01
  675                         0.19      0.23      0.19      0.25         0.19
  681                         0.01      0.01      0.07      0.01         0.01
  69                          0.01      0.07      0.01      0.05         0.01
  693                         0.01      0.07      0.01      0.08         0.01
  695                         0.02      0.02      0.02      0.01         0.02
  71                          0.01      0.07      0.01      0.08         0.01
  711                         0.01      0.01      0.01      0.01         0.01
  713                         0.01      0.01      0.01      0.01         0.01
  719                         0.01      0.01      0.01      0.01         0.01
  723                         0.01      0.01      0.01      0.01         0.01
  733                         0.01      0.02      0.01      0.03         0.01
  735                         0.01      0.01      0.01      0.01         0.01
  737                         0.01      0.01      0.01      0.01         0.01
  739                         0.01      0.01      0.01      0.01         0.01
  741                         0.01      0.01      0.01      0.01         0.01
  77                          0.01      0.11      0.01      0.11         0.01
  81                          0.01      0.01      0.01      0.06         0.01
  863                         0.04      0.05      0.08      0.03         0.01
  87                          0.01      0.01      0.01      0.02         0.01
  89                          0.01      0.01      0.01      0.02         0.01
  93                          0.01      0.01      0.01      0.08         0.01
  939                         2.84      2.87      3.03      2.95         2.84
  943                         3.66      3.88      3.66      3.89         3.66
  945                         3.85      3.85      3.88      3.86         0.01
  967                         0.01      0.10      0.01      0.01         0.01
  969                         0.01      0.01      0.01      0.01         0.01
  981                         0.01      0.01      0.01      0.01         0.01
  
  
  ***************
  Pumping Summary
  ***************
  
  ---------------------------------------------------------------------------------------------------------
                                                  Min       Avg       Max     Total     Power    % Time Off
                        Percent   Number of      Flow      Flow      Flow    Volume     Usage    Pump Curve
  Pump                 Utilized   Start-Ups       GPM       GPM       GPM  10^6 gal     Kw-hr    Low   High
  ---------------------------------------------------------------------------------------------------------
  DAV_HARR_ELEM          100.00           1      0.00    105.00    105.00     0.025      0.82    0.0  100.0
  FPS-01                 100.00           1      0.00    180.00    180.00     0.043      2.27    0.0    0.0
  FPS-03                 100.00           1      0.00    950.00    950.00     0.228     59.40    0.0    0.0
  FPS-05                 100.00           1      0.00   1300.00   1300.00     0.312    355.33    0.0    0.6
  FPS-06                 100.00           1      0.00   2000.00   2000.00     0.480     64.44    0.0    0.0
  FPS-07                 100.00           1      0.00    300.00    300.00     0.072      4.42    0.0    0.0
  FPS-08                 100.00           1      0.00    250.00    250.00     0.060      2.34    0.0   31.3
  FPS-09                 100.00           1      0.00     50.00     50.00     0.012      1.26    0.0    0.0
  FPS-13                 100.00           1      0.00    150.00    150.00     0.036      1.00    0.0    0.0
  FPS-16                 100.00           1      0.00    500.00    500.00     0.120      5.74    0.0    0.0
  FPS-17                 100.00           1      0.00    150.00    150.00     0.036      3.69    0.0    0.0
  FPS-19                 100.00           1      0.00    750.00    750.00     0.180      1.75    0.0  100.0
  FPS-20                 100.00           1      0.00   6300.00   6300.00     1.512    345.26    0.0    0.0
  FPS-21                 100.00           1      0.00    200.00    200.00     0.048      1.70    0.0    0.0
  FPS-22                 100.00           1      0.00   1600.00   1600.00     0.384     47.67    0.0    0.0
  FPS-23                 100.00           1      0.00    800.00    800.00     0.192     24.63    0.0    0.0
  FPS-24                 100.00           1      0.00    350.00    350.00     0.084     21.46    0.0    0.0
  FPS-25                 100.00           1      0.00   1650.00   1650.00     0.396     52.22    0.0    0.0
  FPS-SP                 100.00           1      0.00     50.00     50.00     0.012      0.56    0.0    0.6
  GFPS-01                100.00           1      0.00    134.00    134.00     0.032      1.11    0.0    0.0
  GPS-01                 100.00           1      0.00     80.00     80.00     0.019      0.16    0.0   99.6
  GPS-02                 100.00           1      0.00     10.00     10.00     0.002      0.02    0.0  100.0
  GPS-03                 100.00           1      0.00     60.00     60.00     0.014      1.79    0.0   11.3
  GPS-04                 100.00           1      0.00     30.00     30.00     0.007      0.06    0.0   95.2
  GPS-05                 100.00           1      0.00     30.00     30.00     0.007      0.07    0.0  100.0
  GPS-06                 100.00           1      0.00     20.00     20.00     0.005      0.03    0.0  100.0
  GPS-07                 100.00           1      0.00     30.00     30.00     0.007      1.83    0.0    0.8
  GPS-08                 100.00           1      0.00     40.00     40.00     0.010      0.68    0.0    0.0
  GPS-09                 100.00           1      0.00     30.00     30.00     0.007      0.15    0.0   46.5
  GPS-10                 100.00           1      0.00     60.00     60.00     0.014      0.60    0.0    8.5
  GPS-11                 100.00           1      0.00     50.00     50.00     0.012      0.83    0.0    2.7
  GPS-12                 100.00           1      0.00     20.00     20.00     0.005      6.38    0.0   15.2
  GPS-13                 100.00           1      0.00     40.00     40.00     0.010     10.25    0.0   18.3
  GPS-14                 100.00           1      0.00     40.00     40.00     0.010      0.36    0.0    0.2
  GPS-15                 100.00           1      0.00     30.00     30.00     0.007      0.05    0.0  100.0
  JEJ_MOORE_MS           100.00           1      0.00    105.00    105.00     0.025      0.64    0.0  100.0
  NORTH_ELEM              43.54          70      0.00    103.97    108.00     0.011      2.42    0.0   88.0
  PS-JAIL                 17.71           1      0.00    112.29    350.00     0.005      0.06    0.0   22.4
  SOUTH_ELEM             100.00           1      0.00    105.00    105.00     0.025      0.31    0.0  100.0
  SPS-001                100.00           1      0.00    715.00    715.00     0.172     15.28    0.0  100.0
  SPS-002                100.00           1      0.00    322.56    365.71     0.077      6.47    0.0    0.0
  SPS-003                100.00           1      0.00   1408.94   1450.00     0.338     47.27    0.0   53.3
  SPS-004                 40.84         100      0.00    433.33    445.00     0.042      8.91    0.0   93.9
  SPS-005                100.00           1      0.00    138.00    138.00     0.033      1.39    0.0    0.0
  SPS-006                100.00           1      0.00    971.02   1125.00     0.233     33.91    0.0   13.5
  SPS-007                100.00           1      0.00    891.31   1020.00     0.214     22.40    0.0   14.6
  SPS-008                 93.96           6      0.00    708.87    800.00     0.160     13.68    0.0   20.0
  SPS-009                100.00           1      0.00   1400.00   1400.00     0.336     34.57    0.0  100.0
  SPS-010                100.00           1      0.00    619.74    943.46     0.149     21.55    0.0    0.0
  SPS-011                100.00           1      0.00    200.00    200.00     0.048      5.40    0.0    0.0
  SPS-012                100.00           1      0.00    469.80    580.00     0.113      6.08    0.0    0.2
  SPS-013                100.00           1      0.00    780.16    875.00     0.187     15.62    0.0   25.8
  SPS-014                100.00           1      0.00    108.00    108.00     0.026      0.86    0.0  100.0
  SPS-015                100.00           1      0.00    683.95    700.00     0.164     16.53    0.0   40.8
  SPS-016                 87.09           1      0.00    398.81    650.00     0.083      8.88    0.0   19.6
  SPS-017                100.00           1      0.00    725.00    725.00     0.174     18.60    0.0  100.0
  SPS-018                100.00           1      0.00    337.96    347.00     0.081      7.52    0.0    0.0
  SPS-019                100.00           1      0.00    435.00    435.00     0.104      9.72    0.0  100.0
  SPS-020                100.00           1      0.00    445.00    445.00     0.107      8.29    0.0  100.0
  SPS-021                 99.79           1      0.00    725.00    725.00     0.174      7.66    0.0  100.0
  SPS-022                100.00           1      0.00    243.30    430.00     0.058      8.99    0.0    0.2
  SPS-023                100.00           1      0.00    720.00    720.00     0.173     21.26    0.0  100.0
  SPS-024                 97.92           7      0.00    720.62    725.00     0.169     12.05    0.0   98.7
  SPS-025                100.00           1      0.00    125.00    125.00     0.030      3.19    0.0  100.0
  

  Analysis begun on:  Wed Jun 24 15:09:10 2026
  Analysis ended on:  Wed Jun 24 15:09:11 2026
  Total elapsed time: 00:00:01