
  EPA STORM WATER MANAGEMENT MODEL - VERSION 5.2 (Build 5.2.4)
  ------------------------------------------------------------

  
  *************
  Element Count
  *************
  Number of rain gages ...... 1
  Number of subcatchments ... 12
  Number of nodes ........... 19
  Number of links ........... 19
  Number of pollutants ...... 0
  Number of land uses ....... 0
  
  
  ****************
  Raingage Summary
  ****************
                                                      Data       Recording
  Name                 Data Source                    Type       Interval 
  ------------------------------------------------------------------------
  RAINGAGE-3           NEW_HOPE_100YR                 CUMULATIVE   6 min.
  
  
  ********************
  Subcatchment Summary
  ********************
  Name                       Area     Width   %Imperv    %Slope Rain Gage            Outlet              
  -----------------------------------------------------------------------------------------------------------
  ST1_1                      2.42      1.00     58.00    1.0000 RAINGAGE-3           ST1?                
  ST2325_1                   2.50      1.00     43.00    1.0000 RAINGAGE-3           ST2325              
  ST2327_1                   3.73      1.00     43.00    1.0000 RAINGAGE-3           ST2327              
  ST2336_1                   6.94      1.00     12.00    1.0000 RAINGAGE-3           ST2336              
  ST2337_1                   0.89    270.00     22.00    0.0400 RAINGAGE-3           ST2337              
  ST2338_1                   0.48      1.00     46.00    1.0000 RAINGAGE-3           ST2338              
  ST2339_1                   1.62      1.00     53.00    1.0000 RAINGAGE-3           ST2339              
  ST2368_1                   1.73      1.00     42.00    1.0000 RAINGAGE-3           ST2368              
  ST2369_1                   1.04      1.00     54.00    1.0000 RAINGAGE-3           ST2369              
  ST2_1                      2.40      1.00     57.00    1.0000 RAINGAGE-3           ST2?                
  ST366_1                    2.54      1.00     22.00    1.0000 RAINGAGE-3           ST366               
  ST_2367_1                  0.78      1.00     45.00    1.0000 RAINGAGE-3           ST2367              
  
  
  ************
  Node Summary
  ************
                                           Invert      Max.    Ponded    External
  Name                 Type                 Elev.     Depth      Area    Inflow  
  -------------------------------------------------------------------------------
  ST1?                 JUNCTION            897.02      2.19    1000.0
  ST2325               JUNCTION            895.91      5.29    1000.0
  ST2326               JUNCTION            893.58      7.62    1000.0
  ST2327               JUNCTION            897.17      4.03    1000.0
  ST2328               JUNCTION            896.17      5.03    1000.0
  ST2337               JUNCTION            888.04      3.46    1000.0
  ST2338               JUNCTION            894.90      3.10    1000.0
  ST2339               JUNCTION            894.20      3.82    1000.0
  ST2367               JUNCTION            892.80      3.30    1000.0
  ST2368               JUNCTION            893.10      3.00    1000.0
  ST2369               JUNCTION            884.86     10.94    1000.0
  ST2428               JUNCTION            887.25     10.85    1000.0
  ST2429               JUNCTION            893.10      7.20    1000.0
  ST2430               JUNCTION            885.61     11.49    1000.0
  ST2439               JUNCTION            884.90     11.40    1000.0
  ST2?                 JUNCTION            896.73      2.39    1000.0
  ST366                JUNCTION            895.70      4.91    1000.0
  ST634                OUTFALL             884.19      2.50       0.0
  ST2336               STORAGE             888.05      3.95       0.0
  
  
  ************
  Link Summary
  ************
  Name             From Node        To Node          Type            Length    %Slope Roughness
  ---------------------------------------------------------------------------------------------
  334.1            ST2336           ST2337           CONDUIT            5.0    0.2000    0.0130
  LINK103          ST1?             ST2?             CONDUIT           30.5    0.8525    0.0130
  STP1952          ST2326           ST2336           CONDUIT          162.0    2.0498    0.0130
  STP1953          ST2328           ST2326           CONDUIT           34.5    7.4993    0.0130
  STP2144          ST2339           ST2428           CONDUIT           26.0    8.1034    0.0130
  STP2145          ST2338           ST2428           CONDUIT            8.0   37.3632    0.0130
  STP2146          ST2367           ST2439           CONDUIT           12.0   18.6494    0.0130
  STP2147          ST2368           ST2439           CONDUIT           30.0   13.1113    0.0130
  STP2148          ST2369           ST634            CONDUIT          120.0    0.5583    0.0130
  STP2149          ST2439           ST2369           CONDUIT           35.0    0.1143    0.0130
  STP2150          ST2430           ST2439           CONDUIT          117.0    0.4103    0.0130
  STP2153          ST2429           ST2430           CONDUIT          167.0    4.3034    0.0130
  STP2154          ST2428           ST2430           CONDUIT           76.0    1.8951    0.0130
  STP510           ST2?             ST366            CONDUIT          126.5    0.8143    0.0130
  STP511           ST366            ST2429           CONDUIT           10.0    8.0257    0.0130
  STP512           ST2325           ST2326           CONDUIT           10.5   16.1098    0.0130
  STP513           ST2327           ST2328           CONDUIT           11.5    7.4993    0.0130
  STP514           ST2337           ST2428           CONDUIT          262.6    0.3008    0.0130
  INLET            ST2336           ST2337           ORIFICE     
  
  
  *********************
  Cross Section Summary
  *********************
                                        Full     Full     Hyd.     Max.   No. of     Full
  Conduit          Shape               Depth     Area     Rad.    Width  Barrels     Flow
  ---------------------------------------------------------------------------------------
  334.1            CIRCULAR             1.75     2.41     0.44     1.75        1     7.09
  LINK103          CIRCULAR             1.00     0.79     0.25     1.00        1     3.29
  STP1952          CIRCULAR             1.50     1.77     0.38     1.50        1    15.04
  STP1953          CIRCULAR             1.50     1.77     0.38     1.50        1    28.77
  STP2144          CIRCULAR             1.00     0.79     0.25     1.00        1    10.14
  STP2145          CIRCULAR             1.00     0.79     0.25     1.00        1    21.78
  STP2146          CIRCULAR             1.00     0.79     0.25     1.00        1    15.39
  STP2147          CIRCULAR             1.00     0.79     0.25     1.00        1    12.90
  STP2148          CIRCULAR             2.50     4.91     0.62     2.50        1    30.65
  STP2149          CIRCULAR             2.50     4.91     0.62     2.50        1    13.87
  STP2150          CIRCULAR             2.00     3.14     0.50     2.00        1    14.49
  STP2153          CIRCULAR             1.50     1.77     0.38     1.50        1    21.79
  STP2154          CIRCULAR             1.75     2.41     0.44     1.75        1    21.81
  STP510           CIRCULAR             1.00     0.79     0.25     1.00        1     3.21
  STP511           CIRCULAR             1.50     1.77     0.38     1.50        1    29.76
  STP512           CIRCULAR             1.25     1.23     0.31     1.25        1    25.93
  STP513           CIRCULAR             1.25     1.23     0.31     1.25        1    17.69
  STP514           CIRCULAR             1.75     2.41     0.44     1.75        1     8.69
  
  
  ****************
  Analysis Options
  ****************
  Flow Units ............... CFS
  Process Models:
    Rainfall/Runoff ........ YES
    RDII ................... NO
    Snowmelt ............... NO
    Groundwater ............ NO
    Flow Routing ........... YES
    Ponding Allowed ........ YES
    Water Quality .......... NO
  Infiltration Method ...... CURVE_NUMBER
  Flow Routing Method ...... DYNWAVE
  Surcharge Method ......... EXTRAN
  Starting Date ............ 01/01/2016 00:00:00
  Ending Date .............. 01/03/2016 00:00:00
  Antecedent Dry Days ...... 5.0
  Report Time Step ......... 00:05:00
  Wet Time Step ............ 00:01:00
  Dry Time Step ............ 00:06:00
  Routing Time Step ........ 5.00 sec
  Variable Time Step ....... YES
  Maximum Trials ........... 8
  Number of Threads ........ 1
  Head Tolerance ........... 0.001000 ft
  
  
  **************************        Volume         Depth
  Runoff Quantity Continuity     acre-feet        inches
  **************************     ---------       -------
  Total Precipitation ......        16.649         7.380
  Evaporation Loss .........         0.324         0.143
  Infiltration Loss ........         3.795         1.682
  Surface Runoff ...........        11.357         5.034
  Final Storage ............         1.175         0.521
  Continuity Error (%) .....        -0.005
  
  
  **************************        Volume        Volume
  Flow Routing Continuity        acre-feet      10^6 gal
  **************************     ---------     ---------
  Dry Weather Inflow .......         0.000         0.000
  Wet Weather Inflow .......        11.356         3.701
  Groundwater Inflow .......         0.000         0.000
  RDII Inflow ..............         0.000         0.000
  External Inflow ..........         0.000         0.000
  External Outflow .........        11.094         3.615
  Flooding Loss ............         0.000         0.000
  Evaporation Loss .........         0.000         0.000
  Exfiltration Loss ........         0.000         0.000
  Initial Stored Volume ....         0.000         0.000
  Final Stored Volume ......         0.264         0.086
  Continuity Error (%) .....        -0.018
  
  
  ***************************
  Time-Step Critical Elements
  ***************************
  Link 334.1 (10.90%)
  Link STP2149 (4.74%)
  
  
  ********************************
  Highest Flow Instability Indexes
  ********************************
  All links are stable.
  
  
  *********************************
  Most Frequent Nonconverging Nodes
  *********************************
  Node ST634 (0.20%)
  Node ST1? (0.11%)
  Node ST2? (0.10%)
  Node ST2430 (0.09%)
  
  
  *************************
  Routing Time Step Summary
  *************************
  Minimum Time Step           :     0.99 sec
  Average Time Step           :     4.87 sec
  Maximum Time Step           :     5.00 sec
  % of Time in Steady State   :     0.00
  Average Iterations per Step :     2.02
  % of Steps Not Converging   :     0.20
  Time Step Frequencies       :
      5.000 -  0.910 sec      :   100.00 %
      0.910 -  0.166 sec      :     0.00 %
      0.166 -  0.030 sec      :     0.00 %
      0.030 -  0.005 sec      :     0.00 %
      0.005 -  0.001 sec      :     0.00 %
  
  
  ***************************
  Subcatchment Runoff Summary
  ***************************
  
  ------------------------------------------------------------------------------------------------------------------------------
                            Total      Total      Total      Total     Imperv       Perv      Total       Total     Peak  Runoff
                           Precip      Runon       Evap      Infil     Runoff     Runoff     Runoff      Runoff   Runoff   Coeff
  Subcatchment                 in         in         in         in         in         in         in    10^6 gal      CFS
  ------------------------------------------------------------------------------------------------------------------------------
  ST1_1                      7.38       0.00       0.14       0.95       3.10       2.09       5.19        0.34     5.44   0.703
  ST2325_1                   7.38       0.00       0.15       1.22       2.47       2.90       5.38        0.36     6.55   0.729
  ST2327_1                   7.38       0.00       0.15       1.36       2.20       2.76       4.96        0.50     7.17   0.672
  ST2336_1                   7.38       0.00       0.14       2.70       0.73       3.65       4.38        0.82     8.65   0.593
  ST2337_1                   7.38       0.00       0.12       2.09       1.60       3.58       5.18        0.12     8.45   0.701
  ST2338_1                   7.38       0.00       0.14       1.27       3.22       2.65       5.87        0.08     2.32   0.795
  ST2339_1                   7.38       0.00       0.14       1.08       3.20       2.33       5.53        0.24     4.65   0.749
  ST2368_1                   7.38       0.00       0.14       1.38       2.62       2.82       5.44        0.26     5.23   0.737
  ST2369_1                   7.38       0.00       0.14       1.05       3.51       2.28       5.79        0.16     3.55   0.784
  ST2_1                      7.38       0.00       0.14       0.98       3.07       2.14       5.21        0.34     5.46   0.705
  ST366_1                    7.38       0.00       0.14       2.11       1.43       3.54       4.96        0.34     6.31   0.673
  ST_2367_1                  7.38       0.00       0.14       1.29       3.06       2.69       5.76        0.12     3.27   0.780
  
  
  ******************
  Node Depth Summary
  ******************
  
  ---------------------------------------------------------------------------------
                                 Average  Maximum  Maximum  Time of Max    Reported
                                   Depth    Depth      HGL   Occurrence   Max Depth
  Node                 Type         Feet     Feet     Feet  days hr:min        Feet
  ---------------------------------------------------------------------------------
  ST1?                 JUNCTION     0.25     4.21   901.23     0  12:30        4.21
  ST2325               JUNCTION     0.08     0.86   896.77     0  12:12        0.78
  ST2326               JUNCTION     0.18     1.12   894.70     0  12:13        1.10
  ST2327               JUNCTION     0.12     1.06   898.23     0  12:12        1.06
  ST2328               JUNCTION     0.10     0.51   896.68     0  12:12        0.51
  ST2337               JUNCTION     0.41     1.23   889.27     0  14:06        1.23
  ST2338               JUNCTION     0.03     0.35   895.25     0  12:12        0.29
  ST2339               JUNCTION     0.08     0.50   894.70     0  12:12        0.45
  ST2367               JUNCTION     0.04     0.46   893.26     0  12:12        0.39
  ST2368               JUNCTION     0.07     0.45   893.55     0  12:12        0.43
  ST2369               JUNCTION     0.43     2.19   887.05     0  12:12        2.01
  ST2428               JUNCTION     0.27     0.83   888.08     0  12:12        0.74
  ST2429               JUNCTION     0.16     0.79   893.89     0  12:18        0.79
  ST2430               JUNCTION     0.48     2.67   888.28     0  12:12        2.32
  ST2439               JUNCTION     0.54     2.36   887.26     0  12:12        2.20
  ST2?                 JUNCTION     0.34     4.27   901.00     0  12:30        4.26
  ST366                JUNCTION     0.18     1.45   897.15     0  12:18        1.45
  ST634                OUTFALL      0.43     1.95   886.14     0  12:12        1.87
  ST2336               STORAGE      0.40     1.23   889.28     0  14:07        1.23
  
  
  *******************
  Node Inflow Summary
  *******************
  
  -------------------------------------------------------------------------------------------------
                                  Maximum  Maximum                  Lateral       Total        Flow
                                  Lateral    Total  Time of Max      Inflow      Inflow     Balance
                                   Inflow   Inflow   Occurrence      Volume      Volume       Error
  Node                 Type           CFS      CFS  days hr:min    10^6 gal    10^6 gal     Percent
  -------------------------------------------------------------------------------------------------
  ST1?                 JUNCTION      5.44     5.44     0  12:12       0.341       0.341      -0.008
  ST2325               JUNCTION      6.55     6.55     0  12:12       0.365       0.365       0.019
  ST2326               JUNCTION      0.00    13.74     0  12:12           0       0.867       0.006
  ST2327               JUNCTION      7.17     7.17     0  12:12       0.503       0.503       0.005
  ST2328               JUNCTION      0.00     7.15     0  12:12           0       0.503       0.002
  ST2337               JUNCTION      8.45     8.45     0  12:12       0.124        1.78       0.011
  ST2338               JUNCTION      2.32     2.32     0  12:12      0.0762      0.0762      -0.000
  ST2339               JUNCTION      4.65     4.65     0  12:12       0.244       0.244       0.003
  ST2367               JUNCTION      3.27     3.27     0  12:12       0.122       0.122       0.001
  ST2368               JUNCTION      5.23     5.23     0  12:12       0.256       0.256       0.003
  ST2369               JUNCTION      3.55    32.89     0  12:12       0.163        3.62       0.003
  ST2428               JUNCTION      0.00     9.92     0  12:12           0        2.05       0.002
  ST2429               JUNCTION      0.00    11.94     0  12:18           0        1.02       0.012
  ST2430               JUNCTION      0.00    21.05     0  12:12           0        3.07      -0.020
  ST2439               JUNCTION      0.00    29.46     0  12:12           0        3.45       0.002
  ST2?                 JUNCTION      5.46     7.96     0  12:12       0.339        0.68       0.006
  ST366                JUNCTION      6.31    11.94     0  12:18       0.343        1.02       0.004
  ST634                OUTFALL       0.00    32.74     0  12:12           0        3.62       0.000
  ST2336               STORAGE       8.65    25.66     0  12:12       0.825        1.74       0.005
  
  
  **********************
  Node Surcharge Summary
  **********************
  
  Surcharging occurs when water rises above the top of the highest conduit.
  ---------------------------------------------------------------------
                                               Max. Height   Min. Depth
                                   Hours       Above Crown    Below Rim
  Node                 Type      Surcharged           Feet         Feet
  ---------------------------------------------------------------------
  ST1?                 JUNCTION        1.10          3.208        0.000
  ST2430               JUNCTION        0.29          0.671        8.819
  ST2?                 JUNCTION        1.10          3.237        0.000
  
  
  *********************
  Node Flooding Summary
  *********************
  
  Flooding refers to all water that overflows a node, whether it ponds or not.
  --------------------------------------------------------------------------
                                                             Total   Maximum
                                 Maximum   Time of Max       Flood    Ponded
                        Hours       Rate    Occurrence      Volume     Depth
  Node                 Flooded       CFS   days hr:min    10^6 gal      Feet
  --------------------------------------------------------------------------
  ST1?                    1.05      2.94      0  12:12       0.015     2.018
  ST2?                    1.03      2.91      0  12:12       0.015     1.877
  
  
  **********************
  Storage Volume Summary
  **********************
  
  ------------------------------------------------------------------------------------------------
                         Average    Avg   Evap  Exfil     Maximum    Max    Time of Max    Maximum
                          Volume   Pcnt   Pcnt   Pcnt      Volume   Pcnt     Occurrence    Outflow
  Storage Unit          1000 ftł   Full   Loss   Loss    1000 ftł   Full    days hr:min        CFS
  ------------------------------------------------------------------------------------------------
  ST2336                  23.596    6.4    0.0    0.0      77.805   21.2       0  14:07       6.67
  
  
  ***********************
  Outfall Loading Summary
  ***********************
  
  -----------------------------------------------------------
                         Flow       Avg       Max       Total
                         Freq      Flow      Flow      Volume
  Outfall Node           Pcnt       CFS       CFS    10^6 gal
  -----------------------------------------------------------
  ST634                 95.44      3.30     32.74       3.615
  -----------------------------------------------------------
  System                95.44      3.30     32.74       3.615
  
  
  ********************
  Link Flow Summary
  ********************
  
  -----------------------------------------------------------------------------
                                 Maximum  Time of Max   Maximum    Max/    Max/
                                  |Flow|   Occurrence   |Veloc|    Full    Full
  Link                 Type          CFS  days hr:min    ft/sec    Flow   Depth
  -----------------------------------------------------------------------------
  334.1                CONDUIT      6.66     0  14:11      3.68    0.94    0.70
  LINK103              CONDUIT      3.34     0  13:08      4.25    1.01    1.00
  STP1952              CONDUIT     13.63     0  12:13      9.64    0.91    0.75
  STP1953              CONDUIT      7.15     0  12:12      7.56    0.25    0.54
  STP2144              CONDUIT      4.63     0  12:12     12.28    0.46    0.48
  STP2145              CONDUIT      2.28     0  12:12     13.17    0.10    0.28
  STP2146              CONDUIT      3.21     0  12:12     12.31    0.21    0.38
  STP2147              CONDUIT      5.22     0  12:12     15.36    0.40    0.45
  STP2148              CONDUIT     32.74     0  12:12      7.55    1.07    0.83
  STP2149              CONDUIT     29.43     0  12:12      6.29    2.12    0.91
  STP2150              CONDUIT     21.05     0  12:12      6.70    1.45    1.00
  STP2153              CONDUIT     11.94     0  12:18      8.24    0.55    0.76
  STP2154              CONDUIT      9.77     0  12:12      6.34    0.45    0.74
  STP510               CONDUIT      6.26     0  12:32      7.97    1.95    1.00
  STP511               CONDUIT     11.94     0  12:18      9.00    0.40    0.70
  STP512               CONDUIT      6.59     0  12:12     10.78    0.25    0.52
  STP513               CONDUIT      7.15     0  12:12      8.53    0.40    0.65
  STP514               CONDUIT      6.88     0  14:06      4.99    0.79    0.56
  INLET                ORIFICE      3.36     0  12:09                          
  
  
  ***************************
  Flow Classification Summary
  ***************************
  
  -------------------------------------------------------------------------------------
                      Adjusted    ---------- Fraction of Time in Flow Class ---------- 
                       /Actual         Up    Down  Sub   Sup   Up    Down  Norm  Inlet 
  Conduit               Length    Dry  Dry   Dry   Crit  Crit  Crit  Crit  Ltd   Ctrl  
  -------------------------------------------------------------------------------------
  334.1                  10.45   0.00  0.02  0.00  0.98  0.00  0.00  0.00  0.00  0.00
  LINK103                 1.62   0.01  0.00  0.00  0.82  0.01  0.00  0.16  0.80  0.00
  STP1952                 1.00   0.02  0.00  0.00  0.00  0.00  0.00  0.98  0.00  0.00
  STP1953                 3.37   0.02  0.00  0.00  0.00  0.92  0.00  0.05  0.91  0.00
  STP2144                 3.57   0.01  0.00  0.00  0.00  0.00  0.00  0.99  0.00  0.00
  STP2145                20.88   0.01  0.00  0.00  0.00  0.00  0.00  0.99  0.00  0.00
  STP2146                10.53   0.01  0.00  0.00  0.00  0.00  0.00  0.99  0.00  0.00
  STP2147                 3.68   0.01  0.00  0.00  0.00  0.00  0.00  0.99  0.00  0.00
  STP2148                 1.00   0.01  0.00  0.00  0.07  0.92  0.00  0.00  0.13  0.00
  STP2149                 1.69   0.01  0.00  0.00  0.99  0.00  0.00  0.00  0.01  0.00
  STP2150                 1.00   0.01  0.00  0.00  0.02  0.00  0.00  0.97  0.00  0.00
  STP2153                 1.00   0.02  0.00  0.00  0.07  0.26  0.00  0.64  0.34  0.00
  STP2154                 1.09   0.01  0.00  0.00  0.02  0.29  0.00  0.68  0.32  0.00
  STP510                  1.00   0.01  0.00  0.00  0.09  0.90  0.00  0.00  0.03  0.00
  STP511                 11.89   0.01  0.00  0.00  0.00  0.00  0.00  0.99  0.00  0.00
  STP512                 13.08   0.01  0.00  0.00  0.00  0.00  0.00  0.99  0.00  0.00
  STP513                  9.03   0.01  0.00  0.00  0.00  0.00  0.00  0.99  0.00  0.00
  STP514                  1.00   0.00  0.00  0.00  0.50  0.50  0.00  0.00  0.18  0.00
  
  
  *************************
  Conduit Surcharge Summary
  *************************
  
  ----------------------------------------------------------------------------
                                                           Hours        Hours 
                         --------- Hours Full --------   Above Full   Capacity
  Conduit                Both Ends  Upstream  Dnstream   Normal Flow   Limited
  ----------------------------------------------------------------------------
  LINK103                     1.09      1.09      1.10      0.01         0.01
  STP2148                     0.01      0.01      0.01      0.05         0.01
  STP2149                     0.01      0.01      0.01      1.33         0.01
  STP2150                     0.05      0.29      0.05      1.02         0.05
  STP2153                     0.01      0.01      0.55      0.01         0.01
  STP2154                     0.01      0.01      0.35      0.01         0.01
  STP510                      1.06      1.10      1.06      1.13         1.06
  

  Analysis begun on:  Wed Jun 24 09:48:23 2026
  Analysis ended on:  Wed Jun 24 09:48:24 2026
  Total elapsed time: 00:00:01