
  EPA STORM WATER MANAGEMENT MODEL - VERSION 5.2 (Build 5.2.4)
  ------------------------------------------------------------

  WARNING 03: negative offset ignored for Link CDT-959
  WARNING 03: negative offset ignored for Link FROM_A2-2_TO_A2-1
  WARNING 03: negative offset ignored for Link FROM_A2-3_TO_A2-2
  WARNING 03: negative offset ignored for Link FROM_A2-4_TO_A2-3
  WARNING 03: negative offset ignored for Link FROM_A3-10_TO_A3-11
  WARNING 03: negative offset ignored for Link FROM_A3-11_TO_A3-16
  WARNING 03: negative offset ignored for Link FROM_A3-12_TO_A3-13
  WARNING 03: negative offset ignored for Link FROM_A3-13_TO_A3-11
  WARNING 03: negative offset ignored for Link FROM_A3-15_TO_A3-16
  WARNING 03: negative offset ignored for Link FROM_A3-16_TO_A3-17
  WARNING 03: negative offset ignored for Link FROM_A3-17_TO_A3-20
  WARNING 03: negative offset ignored for Link FROM_A3-20_TO_A3-21
  WARNING 03: negative offset ignored for Link FROM_A3-23_TO_A3-22
  WARNING 03: negative offset ignored for Link FROM_A3-24_TO_A3-25
  WARNING 03: negative offset ignored for Link FROM_A3-5_TO_A3-6
  WARNING 03: negative offset ignored for Link FROM_A3-6_TO_A3-8
  WARNING 03: negative offset ignored for Link FROM_A3-8_TO_A3-10
  WARNING 03: negative offset ignored for Link FROM_A3-9_TO_A3-10
  WARNING 03: negative offset ignored for Link FROM_B1-100_TO_B1-110
  WARNING 03: negative offset ignored for Link FROM_B1-109_TO_B1-7
  WARNING 03: negative offset ignored for Link FROM_B1-112_TO_B1-113
  WARNING 03: negative offset ignored for Link FROM_B1-114_TO_B1-107
  WARNING 03: negative offset ignored for Link FROM_B1-115_TO_B1-76
  WARNING 03: negative offset ignored for Link FROM_B1-117_TO_B1-116
  WARNING 03: negative offset ignored for Link FROM_B1-119_TO_B1-118
  WARNING 03: negative offset ignored for Link FROM_B1-125_TO_B1-128
  WARNING 03: negative offset ignored for Link FROM_B1-127_TO_B1-126
  WARNING 03: negative offset ignored for Link FROM_B1-129_TO_B1-128
  WARNING 03: negative offset ignored for Link FROM_B1-12_TO_B1-17
  WARNING 03: negative offset ignored for Link FROM_B1-137_TO_B1-91
  WARNING 03: negative offset ignored for Link FROM_B1-138_TO_B1-137
  WARNING 03: negative offset ignored for Link FROM_B1-143_TO_B1-142
  WARNING 03: negative offset ignored for Link FROM_B1-145_TO_B1-139
  WARNING 03: negative offset ignored for Link FROM_B1-147_TO_B1-139
  WARNING 03: negative offset ignored for Link FROM_B1-149_TO_B1-148
  WARNING 03: negative offset ignored for Link FROM_B1-151_TO_B1-150
  WARNING 03: negative offset ignored for Link FROM_B1-157_TO_B1-158
  WARNING 03: negative offset ignored for Link FROM_B1-15_TO_B1-16
  WARNING 03: negative offset ignored for Link FROM_B1-160_TO_B1-161
  WARNING 03: negative offset ignored for Link FROM_B1-163_TO_B1-7
  WARNING 03: negative offset ignored for Link FROM_B1-168_TO_B1-169
  WARNING 03: negative offset ignored for Link FROM_B1-169_TO_B1-170
  WARNING 03: negative offset ignored for Link FROM_B1-16_TO_B1-194
  WARNING 03: negative offset ignored for Link FROM_B1-16_TO_B1-194
  WARNING 03: negative offset ignored for Link FROM_B1-175_TO_B1-176
  WARNING 03: negative offset ignored for Link FROM_B1-17_TO_B1-10
  WARNING 03: negative offset ignored for Link FROM_B1-180_TO_B1-181
  WARNING 03: negative offset ignored for Link FROM_B1-181_TO_B1-182
  WARNING 03: negative offset ignored for Link FROM_B1-182_TO_B1-178
  WARNING 03: negative offset ignored for Link FROM_B1-185_TO_B1-186
  WARNING 03: negative offset ignored for Link FROM_B1-186_TO_B1-188
  WARNING 03: negative offset ignored for Link FROM_B1-187_TO_B1-188
  WARNING 03: negative offset ignored for Link FROM_B1-190_TO_B1-191
  WARNING 03: negative offset ignored for Link FROM_B1-192_TO_B1-49
  WARNING 03: negative offset ignored for Link FROM_B1-193_TO_B1-184
  WARNING 03: negative offset ignored for Link FROM_B1-194_TO_B1-14
  WARNING 03: negative offset ignored for Link FROM_B1-195_TO_B1-194
  WARNING 03: negative offset ignored for Link FROM_B1-197_TO_B1-196
  WARNING 03: negative offset ignored for Link FROM_B1-23_TO_B1-22
  WARNING 03: negative offset ignored for Link FROM_B1-24_TO_B1-22
  WARNING 03: negative offset ignored for Link FROM_B1-26_TO_B1-24
  WARNING 03: negative offset ignored for Link FROM_B1-27_TO_B1-26
  WARNING 03: negative offset ignored for Link FROM_B1-28_TO_B1-29
  WARNING 03: negative offset ignored for Link FROM_B1-2_TO_JUB153
  WARNING 03: negative offset ignored for Link FROM_B1-34_TO_B1-33
  WARNING 03: negative offset ignored for Link FROM_B1-4_TO_B1-28
  WARNING 03: negative offset ignored for Link FROM_B1-53_TO_B1-51
  WARNING 03: negative offset ignored for Link FROM_B1-57_TO_B1-58
  WARNING 03: negative offset ignored for Link FROM_B1-59_TO_B1-58
  WARNING 03: negative offset ignored for Link FROM_B1-62_TO_B1-64
  WARNING 03: negative offset ignored for Link FROM_B1-64_TO_B1-66
  WARNING 03: negative offset ignored for Link FROM_B1-65_TO_B1-64
  WARNING 03: negative offset ignored for Link FROM_B1-66_TO_B1-67
  WARNING 03: negative offset ignored for Link FROM_B1-67_TO_B1-68
  WARNING 03: negative offset ignored for Link FROM_B1-69_TO_B1-70
  WARNING 03: negative offset ignored for Link FROM_B1-73_TO_B1-74
  WARNING 03: negative offset ignored for Link FROM_B1-75_TO_B1-76
  WARNING 03: negative offset ignored for Link FROM_B1-78_TO_B1-79
  WARNING 03: negative offset ignored for Link FROM_B1-79_TO_B1-80
  WARNING 03: negative offset ignored for Link FROM_B1-81_TO_B1-80
  WARNING 03: negative offset ignored for Link FROM_B1-82_TO_B1-75
  WARNING 03: negative offset ignored for Link FROM_B1-83_TO_B1-84
  WARNING 03: negative offset ignored for Link FROM_B1-84_TO_B1-85
  WARNING 03: negative offset ignored for Link FROM_B1-89_TO_B1-90
  WARNING 03: negative offset ignored for Link FROM_B1-8_TO_B1-163
  WARNING 03: negative offset ignored for Link FROM_B1-94_TO_B1-95
  WARNING 03: negative offset ignored for Link FROM_B1-95_TO_B1-96
  WARNING 03: negative offset ignored for Link FROM_B1-97_TO_B1-98
  WARNING 03: negative offset ignored for Link FROM_B1-99_TO_B1-100
  WARNING 03: negative offset ignored for Link FROM_B2-100_TO_B2-101
  WARNING 03: negative offset ignored for Link FROM_B2-102_TO_B2-103
  WARNING 03: negative offset ignored for Link FROM_B2-104_TO_B2-93
  WARNING 03: negative offset ignored for Link FROM_B2-106_TO_B2-105
  WARNING 03: negative offset ignored for Link FROM_B2-108_TO_B2-107
  WARNING 03: negative offset ignored for Link FROM_B2-110_TO_B2-109
  WARNING 03: negative offset ignored for Link FROM_B2-111_TO_B2-109
  WARNING 03: negative offset ignored for Link FROM_B2-116_TO_B2-115
  WARNING 03: negative offset ignored for Link FROM_B2-120_TO_B2-121
  WARNING 03: negative offset ignored for Link FROM_B2-126_TO_B2-127
  WARNING 03: negative offset ignored for Link FROM_B2-127_TO_B2-128
  WARNING 03: negative offset ignored for Link FROM_B2-130_TO_B2-129
  WARNING 03: negative offset ignored for Link FROM_B2-131_TO_B1-54
  WARNING 03: negative offset ignored for Link FROM_B2-132_TO_B2-131
  WARNING 03: negative offset ignored for Link FROM_B2-135_TO_B2-132
  WARNING 03: negative offset ignored for Link FROM_B2-136_TO_B2-135
  WARNING 03: negative offset ignored for Link FROM_B2-13_TO_B2-12
  WARNING 03: negative offset ignored for Link FROM_B2-141_TO_B2-140
  WARNING 03: negative offset ignored for Link FROM_B2-146_TO_B2-145
  WARNING 03: negative offset ignored for Link FROM_B2-148_TO_B2-147
  WARNING 03: negative offset ignored for Link FROM_B2-150_TO_B2-149
  WARNING 03: negative offset ignored for Link FROM_B2-151_TO_B2-150
  WARNING 03: negative offset ignored for Link FROM_B2-152_TO_B2-151
  WARNING 03: negative offset ignored for Link FROM_B2-154_TO_B2-152
  WARNING 03: negative offset ignored for Link FROM_B2-155_TO_B2-154
  WARNING 03: negative offset ignored for Link FROM_B2-158_TO_B2-157
  WARNING 03: negative offset ignored for Link FROM_B2-15_TO_B2-14
  WARNING 03: negative offset ignored for Link FROM_B2-163_TO_B2-162
  WARNING 03: negative offset ignored for Link FROM_B2-165_TO_B2-164
  WARNING 03: negative offset ignored for Link FROM_B2-168_TO_B2-167
  WARNING 03: negative offset ignored for Link FROM_B2-169_TO_B2-167
  WARNING 03: negative offset ignored for Link FROM_B2-170_TO_B2-125
  WARNING 03: negative offset ignored for Link FROM_B2-171_TO_B2-170
  WARNING 03: negative offset ignored for Link FROM_B2-172_TO_B2-171
  WARNING 03: negative offset ignored for Link FROM_B2-173_TO_B2-170
  WARNING 03: negative offset ignored for Link FROM_B2-174_TO_B2-173
  WARNING 03: negative offset ignored for Link FROM_B2-175_TO_B2-124
  WARNING 03: negative offset ignored for Link FROM_B2-176_TO_B2-175
  WARNING 03: negative offset ignored for Link FROM_B2-177_TO_B2-166
  WARNING 03: negative offset ignored for Link FROM_B2-17_TO_B2-16
  WARNING 03: negative offset ignored for Link FROM_B2-183_TO_B2-184
  WARNING 03: negative offset ignored for Link FROM_B2-185_TO_B2-184
  WARNING 03: negative offset ignored for Link FROM_B2-187_TO_B2-197
  WARNING 03: negative offset ignored for Link FROM_B2-18_TO_B2-17
  WARNING 03: negative offset ignored for Link FROM_B2-190_TO_B2-197
  WARNING 03: negative offset ignored for Link FROM_B2-191_TO_B2-190
  WARNING 03: negative offset ignored for Link FROM_B2-192_TO_B2-188
  WARNING 03: negative offset ignored for Link FROM_B2-193_TO_B2-192
  WARNING 03: negative offset ignored for Link FROM_B2-197_TO_B2-186
  WARNING 03: negative offset ignored for Link FROM_B2-199_TO_B2-188
  WARNING 03: negative offset ignored for Link FROM_B2-200_TO_B2-201
  WARNING 03: negative offset ignored for Link FROM_B2-201_TO_B2-202
  WARNING 03: negative offset ignored for Link FROM_B2-202_TO_B2-203
  WARNING 03: negative offset ignored for Link FROM_B2-203_TO_B2-138
  WARNING 03: negative offset ignored for Link FROM_B2-204_TO_B2-203
  WARNING 03: negative offset ignored for Link FROM_B2-205_TO_B2-204
  WARNING 03: negative offset ignored for Link FROM_B2-208_TO_B2-207
  WARNING 03: negative offset ignored for Link FROM_B2-215_TO_B2-216
  WARNING 03: negative offset ignored for Link FROM_B2-218_TO_B2-217
  WARNING 03: negative offset ignored for Link FROM_B2-221_TO_B2-224
  WARNING 03: negative offset ignored for Link FROM_B2-224_TO_B2-225
  WARNING 03: negative offset ignored for Link FROM_B2-225_TO_B2-139
  WARNING 03: negative offset ignored for Link FROM_B2-226_TO_B2-227
  WARNING 03: negative offset ignored for Link FROM_B2-227_TO_B2-228
  WARNING 03: negative offset ignored for Link FROM_B2-230_TO_B2-227
  WARNING 03: negative offset ignored for Link FROM_B2-230_TO_B2-227
  WARNING 03: negative offset ignored for Link FROM_B2-232_TO_B2-234
  WARNING 03: negative offset ignored for Link FROM_B2-233_TO_B2-234
  WARNING 03: negative offset ignored for Link FROM_B2-236_TO_B2-237
  WARNING 03: negative offset ignored for Link FROM_B2-237_TO_B2-238
  WARNING 03: negative offset ignored for Link FROM_B2-238_TO_B2-239
  WARNING 03: negative offset ignored for Link FROM_B2-239_TO_B1-185
  WARNING 03: negative offset ignored for Link FROM_B2-240_TO_B2-241
  WARNING 03: negative offset ignored for Link FROM_B2-242_TO_B2-243
  WARNING 03: negative offset ignored for Link FROM_B2-243_TO_B2-244
  WARNING 03: negative offset ignored for Link FROM_B2-247_TO_B2-248
  WARNING 03: negative offset ignored for Link FROM_B2-248_TO_B2-132
  WARNING 03: negative offset ignored for Link FROM_B2-250_TO_B2-251
  WARNING 03: negative offset ignored for Link FROM_B2-251_TO_B2-252
  WARNING 03: negative offset ignored for Link FROM_B2-252_TO_B2-258
  WARNING 03: negative offset ignored for Link FROM_B2-253_TO_B2-252
  WARNING 03: negative offset ignored for Link FROM_B2-256_TO_B2-257
  WARNING 03: negative offset ignored for Link FROM_B2-261_TO_B1-196
  WARNING 03: negative offset ignored for Link FROM_B2-266_TO_B2-267
  WARNING 03: negative offset ignored for Link FROM_B2-268_TO_B2-22
  WARNING 03: negative offset ignored for Link FROM_B2-26_TO_B2-25
  WARNING 03: negative offset ignored for Link FROM_B2-276_TO_B2-20
  WARNING 03: negative offset ignored for Link FROM_B2-277_TO_B2-276
  WARNING 03: negative offset ignored for Link FROM_B2-278_TO_B2-277
  WARNING 03: negative offset ignored for Link FROM_B2-279_TO_B2-278
  WARNING 03: negative offset ignored for Link FROM_B2-27_TO_B2-26
  WARNING 03: negative offset ignored for Link FROM_B2-280_TO_B2-230
  WARNING 03: negative offset ignored for Link FROM_B2-281_TO_C2-159
  WARNING 03: negative offset ignored for Link FROM_B2-282_TO_B2-281
  WARNING 03: negative offset ignored for Link FROM_B2-283_TO_B2-282
  WARNING 03: negative offset ignored for Link FROM_B2-29_TO_B2-28
  WARNING 03: negative offset ignored for Link FROM_B2-32_TO_B2-28
  WARNING 03: negative offset ignored for Link FROM_B2-34_TO_B2-33
  WARNING 03: negative offset ignored for Link FROM_B2-35_TO_B2-27
  WARNING 03: negative offset ignored for Link FROM_B2-36_TO_B2-26
  WARNING 03: negative offset ignored for Link FROM_B2-37_TO_B2-36
  WARNING 03: negative offset ignored for Link FROM_B2-38_TO_B2-37
  WARNING 03: negative offset ignored for Link FROM_B2-43_TO_B2-42
  WARNING 03: negative offset ignored for Link FROM_B2-49_TO_B2-48
  WARNING 03: negative offset ignored for Link FROM_B2-63_TO_B2-64
  WARNING 03: negative offset ignored for Link FROM_B2-68_TO_B2-31
  WARNING 03: negative offset ignored for Link FROM_B2-71_TO_B2-68
  WARNING 03: negative offset ignored for Link FROM_B2-73_TO_B2-27
  WARNING 03: negative offset ignored for Link FROM_B2-75_TO_B2-76
  WARNING 03: negative offset ignored for Link FROM_B2-76_TO_B2-77
  WARNING 03: negative offset ignored for Link FROM_B2-77_TO_B2-78
  WARNING 03: negative offset ignored for Link FROM_B2-83_TO_B2-82
  WARNING 03: negative offset ignored for Link FROM_B2-84_TO_B2-83
  WARNING 03: negative offset ignored for Link FROM_B2-86_TO_B2-84
  WARNING 03: negative offset ignored for Link FROM_B2-97_TO_B2-99
  WARNING 03: negative offset ignored for Link FROM_B3-100_TO_B3-99
  WARNING 03: negative offset ignored for Link FROM_B3-103_TO_B3-99
  WARNING 03: negative offset ignored for Link FROM_B3-104_TO_B3-103
  WARNING 03: negative offset ignored for Link FROM_B3-108_TO_B3-107
  WARNING 03: negative offset ignored for Link FROM_B3-109_TO_B3-219
  WARNING 03: negative offset ignored for Link FROM_B3-111_TO_B3-110
  WARNING 03: negative offset ignored for Link FROM_B3-112_TO_B3-111
  WARNING 03: negative offset ignored for Link FROM_B3-113_TO_B3-110
  WARNING 03: negative offset ignored for Link FROM_B3-116_TO_B3-115
  WARNING 03: negative offset ignored for Link FROM_B3-119_TO_B3-167
  WARNING 03: negative offset ignored for Link FROM_B3-122_TO_B3-11
  WARNING 03: negative offset ignored for Link FROM_B3-123_TO_B3-159
  WARNING 03: negative offset ignored for Link FROM_B3-124_TO_B3-17
  WARNING 03: negative offset ignored for Link FROM_B3-125_TO_B3-13
  WARNING 03: negative offset ignored for Link FROM_B3-127_TO_C3-175
  WARNING 03: negative offset ignored for Link FROM_B3-128_TO_C3-174
  WARNING 03: negative offset ignored for Link FROM_B3-133_TO_B3-88
  WARNING 03: negative offset ignored for Link FROM_B3-135_TO_B3-53
  WARNING 03: negative offset ignored for Link FROM_B3-138_TO_B3-171
  WARNING 03: negative offset ignored for Link FROM_B3-141_TO_B3-76
  WARNING 03: negative offset ignored for Link FROM_B3-142_TO_B3-93
  WARNING 03: negative offset ignored for Link FROM_B3-145_TO_B3-31
  WARNING 03: negative offset ignored for Link FROM_B3-146_TO_B3-119
  WARNING 03: negative offset ignored for Link FROM_B3-147_TO_B3-186
  WARNING 03: negative offset ignored for Link FROM_B3-148_TO_B3-25
  WARNING 03: negative offset ignored for Link FROM_B3-149_TO_B3-29
  WARNING 03: negative offset ignored for Link FROM_B3-150_TO_B3-29
  WARNING 03: negative offset ignored for Link FROM_B3-151_TO_B3-17
  WARNING 03: negative offset ignored for Link FROM_B3-153_TO_B3-72
  WARNING 03: negative offset ignored for Link FROM_B3-154_TO_B3-153
  WARNING 03: negative offset ignored for Link FROM_B3-156_TO_B3-33
  WARNING 03: negative offset ignored for Link FROM_B3-165_TO_B3-23
  WARNING 03: negative offset ignored for Link FROM_B3-166_TO_B3-46
  WARNING 03: negative offset ignored for Link FROM_B3-167_TO_B3-117
  WARNING 03: negative offset ignored for Link FROM_B3-168_TO_B3-167
  WARNING 03: negative offset ignored for Link FROM_B3-169_TO_B3-168
  WARNING 03: negative offset ignored for Link FROM_B3-176_TO_B3-175
  WARNING 03: negative offset ignored for Link FROM_B3-177_TO_B3-176
  WARNING 03: negative offset ignored for Link FROM_B3-179_TO_B3-178
  WARNING 03: negative offset ignored for Link FROM_B3-182_TO_B3-181
  WARNING 03: negative offset ignored for Link FROM_B3-183_TO_B3-7
  WARNING 03: negative offset ignored for Link FROM_B3-184_TO_B3-183
  WARNING 03: negative offset ignored for Link FROM_B3-185_TO_B3-142
  WARNING 03: negative offset ignored for Link FROM_B3-187_TO_B3-186
  WARNING 03: negative offset ignored for Link FROM_B3-190_TO_B3-8
  WARNING 03: negative offset ignored for Link FROM_B3-192_TO_B3-193
  WARNING 03: negative offset ignored for Link FROM_B3-193_TO_B3-194
  WARNING 03: negative offset ignored for Link FROM_B3-194_TO_B3-195
  WARNING 03: negative offset ignored for Link FROM_B3-196_TO_B3-194
  WARNING 03: negative offset ignored for Link FROM_B3-197_TO_B3-196
  WARNING 03: negative offset ignored for Link FROM_B3-198_TO_B3-196
  WARNING 03: negative offset ignored for Link FROM_B3-199_TO_B3-198
  WARNING 03: negative offset ignored for Link FROM_B3-207_TO_B3-206
  WARNING 03: negative offset ignored for Link FROM_B3-208_TO_B3-170
  WARNING 03: negative offset ignored for Link FROM_B3-211_TO_B3-42
  WARNING 03: negative offset ignored for Link FROM_B3-214_TO_B3-211
  WARNING 03: negative offset ignored for Link FROM_B3-218_TO_B3-224
  WARNING 03: negative offset ignored for Link FROM_B3-219_TO_B3-106
  WARNING 03: negative offset ignored for Link FROM_B3-21_TO_B3-20
  WARNING 03: negative offset ignored for Link FROM_B3-221_TO_B3-220
  WARNING 03: negative offset ignored for Link FROM_B3-222_TO_B3-220
  WARNING 03: negative offset ignored for Link FROM_B3-225_TO_B3-218
  WARNING 03: negative offset ignored for Link FROM_B3-22_TO_B3-21
  WARNING 03: negative offset ignored for Link FROM_B3-232_TO_A3-12
  WARNING 03: negative offset ignored for Link FROM_B3-234_TO_A3-14
  WARNING 03: negative offset ignored for Link FROM_B3-235_TO_B3-234
  WARNING 03: negative offset ignored for Link FROM_B3-240_TO_B3-123
  WARNING 03: negative offset ignored for Link FROM_B3-242_TO_B3-241
  WARNING 03: negative offset ignored for Link FROM_B3-245_TO_B3-246
  WARNING 03: negative offset ignored for Link FROM_B3-247_TO_B3-246
  WARNING 03: negative offset ignored for Link FROM_B3-248_TO_B3-247
  WARNING 03: negative offset ignored for Link FROM_B3-251_TO_B3-250
  WARNING 03: negative offset ignored for Link FROM_B3-253_TO_B3-251
  WARNING 03: negative offset ignored for Link FROM_B3-287_TO_B3-288
  WARNING 03: negative offset ignored for Link FROM_B3-288_TO_B3-289
  WARNING 03: negative offset ignored for Link FROM_B3-289_TO_B3-17
  WARNING 03: negative offset ignored for Link FROM_B3-29_TO_B3-26
  WARNING 03: negative offset ignored for Link FROM_B3-30_TO_JUB136
  WARNING 03: negative offset ignored for Link FROM_B3-330_TO_A3-5
  WARNING 03: negative offset ignored for Link FROM_B3-33_TO_B3-32
  WARNING 03: negative offset ignored for Link FROM_B3-35_TO_B3-34
  WARNING 03: negative offset ignored for Link FROM_B3-37_TO_B3-36
  WARNING 03: negative offset ignored for Link FROM_B3-39_TO_B3-28
  WARNING 03: negative offset ignored for Link FROM_B3-42_TO_B3-41
  WARNING 03: negative offset ignored for Link FROM_B3-49_TO_B3-50
  WARNING 03: negative offset ignored for Link FROM_B3-50_TO_B3-51
  WARNING 03: negative offset ignored for Link FROM_B3-52_TO_B3-51
  WARNING 03: negative offset ignored for Link FROM_B3-55_TO_B3-54
  WARNING 03: negative offset ignored for Link FROM_B3-57_TO_B3-60
  WARNING 03: negative offset ignored for Link FROM_B3-58_TO_B3-59
  WARNING 03: negative offset ignored for Link FROM_B3-59_TO_B3-152
  WARNING 03: negative offset ignored for Link FROM_B3-60_TO_B3-61
  WARNING 03: negative offset ignored for Link FROM_B3-61_TO_B3-62
  WARNING 03: negative offset ignored for Link FROM_B3-63_TO_B3-62
  WARNING 03: negative offset ignored for Link FROM_B3-65_TO_B3-66
  WARNING 03: negative offset ignored for Link FROM_B3-71_TO_B3-70
  WARNING 03: negative offset ignored for Link FROM_B3-76_TO_B3-75
  WARNING 03: negative offset ignored for Link FROM_B3-78_TO_B3-77
  WARNING 03: negative offset ignored for Link FROM_B3-79_TO_B3-78
  WARNING 03: negative offset ignored for Link FROM_B3-80_TO_B3-78
  WARNING 03: negative offset ignored for Link FROM_B3-81_TO_B3-78
  WARNING 03: negative offset ignored for Link FROM_B3-82_TO_B3-81
  WARNING 03: negative offset ignored for Link FROM_B3-85_TO_B3-81
  WARNING 03: negative offset ignored for Link FROM_B3-87_TO_B3-83
  WARNING 03: negative offset ignored for Link FROM_B3-88_TO_B3-89
  WARNING 03: negative offset ignored for Link FROM_B3-89_TO_B2-41
  WARNING 04: minimum elevation drop used for Conduit FROM_B3-92_TO_B3-91
  WARNING 03: negative offset ignored for Link FROM_B3-93_TO_B3-92
  WARNING 03: negative offset ignored for Link FROM_B3-97_TO_B3-95
  WARNING 03: negative offset ignored for Link FROM_B3-98_TO_B3-97
  WARNING 03: negative offset ignored for Link FROM_B3-99_TO_B3-94
  WARNING 03: negative offset ignored for Link FROM_B4-101_TO_B4-60
  WARNING 03: negative offset ignored for Link FROM_B4-102_TO_B4-4
  WARNING 03: negative offset ignored for Link FROM_B4-108_TO_B4-109
  WARNING 03: negative offset ignored for Link FROM_B4-109_TO_B4-12
  WARNING 03: negative offset ignored for Link FROM_B4-110_TO_B4-108
  WARNING 03: negative offset ignored for Link FROM_B4-130_TO_B4-129
  WARNING 03: negative offset ignored for Link FROM_B4-131_TO_B4-130
  WARNING 03: negative offset ignored for Link FROM_B4-131_TO_B4-130
  WARNING 03: negative offset ignored for Link FROM_B4-132_TO_B4-131
  WARNING 03: negative offset ignored for Link FROM_B4-132_TO_B4-131
  WARNING 03: negative offset ignored for Link FROM_B4-133_TO_B4-132
  WARNING 03: negative offset ignored for Link FROM_B4-134_TO_B4-76
  WARNING 03: negative offset ignored for Link FROM_B4-143_TO_B4-142
  WARNING 03: negative offset ignored for Link FROM_B4-144_TO_B4-29
  WARNING 03: negative offset ignored for Link FROM_B4-147_TO_B4-78
  WARNING 03: negative offset ignored for Link FROM_B4-147_TO_B4-78
  WARNING 03: negative offset ignored for Link FROM_B4-148_TO_B4-91
  WARNING 03: negative offset ignored for Link FROM_B4-150_TO_B4-149
  WARNING 03: negative offset ignored for Link FROM_B4-162_TO_B3-37
  WARNING 03: negative offset ignored for Link FROM_B4-25_TO_B4-24
  WARNING 03: negative offset ignored for Link FROM_B4-28_TO_B4-27
  WARNING 03: negative offset ignored for Link FROM_B4-29_TO_B4-28
  WARNING 03: negative offset ignored for Link FROM_B4-34_TO_B4-111
  WARNING 03: negative offset ignored for Link FROM_B4-38_TO_B4-37
  WARNING 03: negative offset ignored for Link FROM_B4-39_TO_B4-2
  WARNING 03: negative offset ignored for Link FROM_B4-40_TO_B4-39
  WARNING 03: negative offset ignored for Link FROM_B4-41_TO_B4-119
  WARNING 03: negative offset ignored for Link FROM_B4-42_TO_B4-107
  WARNING 03: negative offset ignored for Link FROM_B4-42_TO_B4-121
  WARNING 03: negative offset ignored for Link FROM_B4-45_TO_B4-42
  WARNING 03: negative offset ignored for Link FROM_B4-46_TO_B4-45
  WARNING 03: negative offset ignored for Link FROM_B4-47_TO_B4-46
  WARNING 03: negative offset ignored for Link FROM_B4-48_TO_B4-47
  WARNING 03: negative offset ignored for Link FROM_B4-55_TO_B4-54
  WARNING 03: negative offset ignored for Link FROM_B4-56_TO_B4-55
  WARNING 03: negative offset ignored for Link FROM_B4-58_TO_B4-57
  WARNING 03: negative offset ignored for Link FROM_B4-60_TO_B4-59
  WARNING 03: negative offset ignored for Link FROM_B4-61_TO_B4-60
  WARNING 03: negative offset ignored for Link FROM_B4-69_TO_JUB135
  WARNING 03: negative offset ignored for Link FROM_B4-70_TO_B4-69
  WARNING 03: negative offset ignored for Link FROM_B4-70_TO_B4-69
  WARNING 03: negative offset ignored for Link FROM_B4-71_TO_B4-70
  WARNING 03: negative offset ignored for Link FROM_B4-71_TO_B4-70
  WARNING 03: negative offset ignored for Link FROM_B4-72_TO_B4-71
  WARNING 03: negative offset ignored for Link FROM_B4-73_TO_B4-71
  WARNING 03: negative offset ignored for Link FROM_B4-76_TO_B4-74
  WARNING 03: negative offset ignored for Link FROM_B4-77_TO_B4-76
  WARNING 03: negative offset ignored for Link FROM_B4-78_TO_B4-77
  WARNING 03: negative offset ignored for Link FROM_B4-79_TO_B4-110
  WARNING 03: negative offset ignored for Link FROM_B4-86_TO_B4-84
  WARNING 03: negative offset ignored for Link FROM_B4-87_TO_B4-86
  WARNING 03: negative offset ignored for Link FROM_B4-87_TO_B4-86
  WARNING 03: negative offset ignored for Link FROM_B4-89_TO_B4-28
  WARNING 03: negative offset ignored for Link FROM_B4-91_TO_B4-130
  WARNING 03: negative offset ignored for Link FROM_B4-91_TO_B4-130
  WARNING 03: negative offset ignored for Link FROM_B4-94_TO_B4-53
  WARNING 03: negative offset ignored for Link FROM_B4-96_TO_B4-58
  WARNING 03: negative offset ignored for Link FROM_B6-8_TO_B6-7
  WARNING 03: negative offset ignored for Link FROM_C1-19_TO_C1-18
  WARNING 03: negative offset ignored for Link FROM_C1-20_TO_C1-19
  WARNING 03: negative offset ignored for Link FROM_C1-22_TO_C1-21
  WARNING 03: negative offset ignored for Link FROM_C1-23_TO_C1-22
  WARNING 03: negative offset ignored for Link FROM_C1-25_TO_C1-32
  WARNING 03: negative offset ignored for Link FROM_C1-30_TO_B1-35
  WARNING 03: negative offset ignored for Link FROM_C1-33_TO_C1-18
  WARNING 03: negative offset ignored for Link FROM_C1-34_TO_B1-77
  WARNING 03: negative offset ignored for Link FROM_C1-35_TO_C1-36
  WARNING 03: negative offset ignored for Link FROM_C1-37_TO_B1-57
  WARNING 03: negative offset ignored for Link FROM_C1-41_TO_C1-30
  WARNING 03: negative offset ignored for Link FROM_C1-46_TO_C1-45
  WARNING 03: negative offset ignored for Link FROM_C1-49_TO_C1-8
  WARNING 03: negative offset ignored for Link FROM_C2-101_TO_C1-26
  WARNING 03: negative offset ignored for Link FROM_C2-102_TO_C2-101
  WARNING 03: negative offset ignored for Link FROM_C2-103_TO_C2-102
  WARNING 03: negative offset ignored for Link FROM_C2-104_TO_C1-26
  WARNING 03: negative offset ignored for Link FROM_C2-105_TO_C2-119
  WARNING 03: negative offset ignored for Link FROM_C2-107_TO_C2-108
  WARNING 03: negative offset ignored for Link FROM_C2-108_TO_C2-109
  WARNING 03: negative offset ignored for Link FROM_C2-109_TO_C2-5
  WARNING 03: negative offset ignored for Link FROM_C2-111_TO_C2-98
  WARNING 03: negative offset ignored for Link FROM_C2-114_TO_C2-113
  WARNING 03: negative offset ignored for Link FROM_C2-115_TO_JUB101
  WARNING 03: negative offset ignored for Link FROM_C2-117_TO_C2-100
  WARNING 03: negative offset ignored for Link FROM_C2-120_TO_C2-25
  WARNING 03: negative offset ignored for Link FROM_C2-121_TO_C2-88
  WARNING 03: negative offset ignored for Link FROM_C2-122_TO_C2-103
  WARNING 03: negative offset ignored for Link FROM_C2-123_TO_C2-122
  WARNING 03: negative offset ignored for Link FROM_C2-125_TO_C1-31
  WARNING 03: negative offset ignored for Link FROM_C2-126_TO_C2-125
  WARNING 03: negative offset ignored for Link FROM_C2-127_TO_C2-122
  WARNING 03: negative offset ignored for Link FROM_C2-128_TO_C2-127
  WARNING 03: negative offset ignored for Link FROM_C2-131_TO_C2-126
  WARNING 03: negative offset ignored for Link FROM_C2-132_TO_C2-131
  WARNING 03: negative offset ignored for Link FROM_C2-135_TO_C2-136
  WARNING 03: negative offset ignored for Link FROM_C2-136_TO_C2-133
  WARNING 03: negative offset ignored for Link FROM_C2-138_TO_C2-137
  WARNING 03: negative offset ignored for Link FROM_C2-139_TO_C2-138
  WARNING 03: negative offset ignored for Link FROM_C2-141_TO_C2-182
  WARNING 03: negative offset ignored for Link FROM_C2-148_TO_C2-112
  WARNING 03: negative offset ignored for Link FROM_C2-149_TO_C2-84
  WARNING 03: negative offset ignored for Link FROM_C2-150_TO_C2-149
  WARNING 03: negative offset ignored for Link FROM_C2-155_TO_C2-156
  WARNING 03: negative offset ignored for Link FROM_C2-164_TO_C2-165
  WARNING 03: negative offset ignored for Link FROM_C2-166_TO_C2-115
  WARNING 03: negative offset ignored for Link FROM_C2-168_TO_C1-41
  WARNING 03: negative offset ignored for Link FROM_C2-170_TO_C2-169
  WARNING 03: negative offset ignored for Link FROM_C2-171_TO_C2-169
  WARNING 03: negative offset ignored for Link FROM_C2-172_TO_C2-171
  WARNING 03: negative offset ignored for Link FROM_C2-173_TO_C2-171
  WARNING 03: negative offset ignored for Link FROM_C2-175_TO_C2-173
  WARNING 03: negative offset ignored for Link FROM_C2-176_TO_C2-175
  WARNING 03: negative offset ignored for Link FROM_C2-177_TO_C2-175
  WARNING 03: negative offset ignored for Link FROM_C2-181_TO_C1-46
  WARNING 03: negative offset ignored for Link FROM_C2-182_TO_C2-85
  WARNING 03: negative offset ignored for Link FROM_C2-187_TO_C2-188
  WARNING 03: negative offset ignored for Link FROM_C2-189_TO_C2-188
  WARNING 03: negative offset ignored for Link FROM_C2-190_TO_C2-183
  WARNING 03: negative offset ignored for Link FROM_C2-191_TO_C2-190
  WARNING 03: negative offset ignored for Link FROM_C2-194_TO_C2-192
  WARNING 03: negative offset ignored for Link FROM_C2-195_TO_C2-196
  WARNING 03: negative offset ignored for Link FROM_C2-197_TO_C2-198
  WARNING 03: negative offset ignored for Link FROM_C2-214_TO_C2-213
  WARNING 03: negative offset ignored for Link FROM_C2-215_TO_C2-223
  WARNING 03: negative offset ignored for Link FROM_C2-216_TO_C2-215
  WARNING 03: negative offset ignored for Link FROM_C2-220_TO_C2-143
  WARNING 03: negative offset ignored for Link FROM_C2-22_TO_C2-21
  WARNING 03: negative offset ignored for Link FROM_C2-23_TO_C2-13
  WARNING 03: negative offset ignored for Link FROM_C2-26_TO_C2-120
  WARNING 03: negative offset ignored for Link FROM_C2-27_TO_C2-26
  WARNING 03: negative offset ignored for Link FROM_C2-29_TO_C2-28
  WARNING 03: negative offset ignored for Link FROM_C2-30_TO_C2-29
  WARNING 03: negative offset ignored for Link FROM_C2-31_TO_C2-30
  WARNING 03: negative offset ignored for Link FROM_C2-33_TO_C2-32
  WARNING 03: negative offset ignored for Link FROM_C2-34_TO_C2-32
  WARNING 03: negative offset ignored for Link FROM_C2-35_TO_C2-38
  WARNING 03: negative offset ignored for Link FROM_C2-36_TO_C2-35
  WARNING 03: negative offset ignored for Link FROM_C2-37_TO_C2-36
  WARNING 03: negative offset ignored for Link FROM_C2-39_TO_C2-38
  WARNING 03: negative offset ignored for Link FROM_C2-45_TO_C2-144
  WARNING 03: negative offset ignored for Link FROM_C2-50_TO_C2-49
  WARNING 03: negative offset ignored for Link FROM_C2-51_TO_C2-50
  WARNING 03: negative offset ignored for Link FROM_C2-52_TO_C2-51
  WARNING 03: negative offset ignored for Link FROM_C2-53_TO_C2-51
  WARNING 03: negative offset ignored for Link FROM_C2-54_TO_C2-49
  WARNING 03: negative offset ignored for Link FROM_C2-56_TO_C2-55
  WARNING 03: negative offset ignored for Link FROM_C2-57_TO_C2-48
  WARNING 03: negative offset ignored for Link FROM_C2-60_TO_C2-61
  WARNING 03: negative offset ignored for Link FROM_C2-62_TO_C2-61
  WARNING 03: negative offset ignored for Link FROM_C2-63_TO_C2-64
  WARNING 03: negative offset ignored for Link FROM_C2-64_TO_C2-65
  WARNING 03: negative offset ignored for Link FROM_C2-65_TO_C2-35
  WARNING 03: negative offset ignored for Link FROM_C2-68_TO_C2-67
  WARNING 03: negative offset ignored for Link FROM_C2-69_TO_C2-45
  WARNING 03: negative offset ignored for Link FROM_C2-70_TO_C2-65
  WARNING 03: negative offset ignored for Link FROM_C2-80_TO_C2-97
  WARNING 03: negative offset ignored for Link FROM_C2-83_TO_C2-148
  WARNING 03: negative offset ignored for Link FROM_C2-84_TO_C2-83
  WARNING 03: negative offset ignored for Link FROM_C2-85_TO_C2-149
  WARNING 03: negative offset ignored for Link FROM_C2-86_TO_C2-85
  WARNING 03: negative offset ignored for Link FROM_C2-87_TO_C2-86
  WARNING 03: negative offset ignored for Link FROM_C2-88_TO_C2-87
  WARNING 03: negative offset ignored for Link FROM_C2-90_TO_C2-121
  WARNING 03: negative offset ignored for Link FROM_C2-92_TO_C2-91
  WARNING 03: negative offset ignored for Link FROM_C2-93_TO_C2-92
  WARNING 03: negative offset ignored for Link FROM_C2-94_TO_C2-92
  WARNING 03: negative offset ignored for Link FROM_C2-96_TO_C2-95
  WARNING 03: negative offset ignored for Link FROM_C2-97_TO_C2-104
  WARNING 03: negative offset ignored for Link FROM_C2-99_TO_C2-100
  WARNING 03: negative offset ignored for Link FROM_C3-100_TO_C3-99
  WARNING 03: negative offset ignored for Link FROM_C3-102_TO_C3-100
  WARNING 03: negative offset ignored for Link FROM_C3-103_TO_C3-102
  WARNING 03: negative offset ignored for Link FROM_C3-109_TO_C3-83
  WARNING 03: negative offset ignored for Link FROM_C3-10_TO_C3-9
  WARNING 03: negative offset ignored for Link FROM_C3-110_TO_C3-109
  WARNING 03: negative offset ignored for Link FROM_C3-111_TO_C3-110
  WARNING 03: negative offset ignored for Link FROM_C3-11_TO_C3-9
  WARNING 03: negative offset ignored for Link FROM_C3-121_TO_C3-119
  WARNING 03: negative offset ignored for Link FROM_C3-123_TO_C3-122
  WARNING 03: negative offset ignored for Link FROM_C3-124_TO_C3-263
  WARNING 03: negative offset ignored for Link FROM_C3-125_TO_C3-126
  WARNING 03: negative offset ignored for Link FROM_C3-128_TO_C3-127
  WARNING 03: negative offset ignored for Link FROM_C3-12_TO_C3-10
  WARNING 03: negative offset ignored for Link FROM_C3-130_TO_C3-7
  WARNING 03: negative offset ignored for Link FROM_C3-131_TO_C3-76
  WARNING 03: negative offset ignored for Link FROM_C3-134_TO_C3-77
  WARNING 03: negative offset ignored for Link FROM_C3-139_TO_C3-249
  WARNING 03: negative offset ignored for Link FROM_C3-141_TO_C3-247
  WARNING 03: negative offset ignored for Link FROM_C3-144_TO_C3-143
  WARNING 03: negative offset ignored for Link FROM_C3-152_TO_C3-151
  WARNING 03: negative offset ignored for Link FROM_C3-153_TO_C3-152
  WARNING 03: negative offset ignored for Link FROM_C3-154_TO_C3-153
  WARNING 03: negative offset ignored for Link FROM_C3-158_TO_C3-156
  WARNING 03: negative offset ignored for Link FROM_C3-15_TO_C3-13
  WARNING 03: negative offset ignored for Link FROM_C3-160_TO_C3-178
  WARNING 03: negative offset ignored for Link FROM_C3-164_TO_C3-163
  WARNING 03: negative offset ignored for Link FROM_C3-166_TO_C3-266
  WARNING 03: negative offset ignored for Link FROM_C3-174_TO_C3-175
  WARNING 03: negative offset ignored for Link FROM_C3-175_TO_C3-178
  WARNING 03: negative offset ignored for Link FROM_C3-177_TO_C3-176
  WARNING 03: negative offset ignored for Link FROM_C3-178_TO_C3-180
  WARNING 03: negative offset ignored for Link FROM_C3-17_TO_C3-278
  WARNING 03: negative offset ignored for Link FROM_C3-181_TO_B3-117
  WARNING 03: negative offset ignored for Link FROM_C3-182_TO_C3-285
  WARNING 03: negative offset ignored for Link FROM_C3-184_TO_C3-7
  WARNING 03: negative offset ignored for Link FROM_C3-185_TO_C3-186
  WARNING 03: negative offset ignored for Link FROM_C3-186_TO_C3-184
  WARNING 03: negative offset ignored for Link FROM_C3-187_TO_C3-186
  WARNING 03: negative offset ignored for Link FROM_C3-18_TO_C3-17
  WARNING 03: negative offset ignored for Link FROM_C3-194_TO_C3-195
  WARNING 03: negative offset ignored for Link FROM_C3-195_TO_C3-196
  WARNING 03: negative offset ignored for Link FROM_C3-199_TO_C3-197
  WARNING 03: negative offset ignored for Link FROM_C3-200_TO_C3-199
  WARNING 03: negative offset ignored for Link FROM_C3-201_TO_C3-200
  WARNING 03: negative offset ignored for Link FROM_C3-202_TO_C3-209
  WARNING 03: negative offset ignored for Link FROM_C3-204_TO_C3-205
  WARNING 03: negative offset ignored for Link FROM_C3-207_TO_C3-206
  WARNING 03: negative offset ignored for Link FROM_C3-20_TO_C3-19
  WARNING 03: negative offset ignored for Link FROM_C3-210_TO_C3-211
  WARNING 03: negative offset ignored for Link FROM_C3-211_TO_C3-212
  WARNING 03: negative offset ignored for Link FROM_C3-212_TO_B3-68
  WARNING 03: negative offset ignored for Link FROM_C3-219_TO_C3-233
  WARNING 03: negative offset ignored for Link FROM_C3-220_TO_C3-219
  WARNING 03: negative offset ignored for Link FROM_C3-221_TO_C3-222
  WARNING 03: negative offset ignored for Link FROM_C3-228_TO_C2-43
  WARNING 03: negative offset ignored for Link FROM_C3-229_TO_C3-228
  WARNING 03: negative offset ignored for Link FROM_C3-22_TO_C3-21
  WARNING 03: negative offset ignored for Link FROM_C3-230_TO_C3-2
  WARNING 03: negative offset ignored for Link FROM_C3-231_TO_C3-174
  WARNING 03: negative offset ignored for Link FROM_C3-233_TO_C2-66
  WARNING 03: negative offset ignored for Link FROM_C3-234_TO_C2-68
  WARNING 03: negative offset ignored for Link FROM_C3-239_TO_C3-23
  WARNING 03: negative offset ignored for Link FROM_C3-23_TO_C3-20
  WARNING 03: negative offset ignored for Link FROM_C3-240_TO_C3-22
  WARNING 03: negative offset ignored for Link FROM_C3-245_TO_C3-92
  WARNING 03: negative offset ignored for Link FROM_C3-246_TO_C3-66
  WARNING 03: negative offset ignored for Link FROM_C3-248_TO_C3-69
  WARNING 03: negative offset ignored for Link FROM_C3-24_TO_C3-23
  WARNING 03: negative offset ignored for Link FROM_C3-251_TO_C3-247
  WARNING 03: negative offset ignored for Link FROM_C3-252_TO_C3-204
  WARNING 03: negative offset ignored for Link FROM_C3-253_TO_C3-107
  WARNING 03: negative offset ignored for Link FROM_C3-256_TO_C3-271
  WARNING 03: negative offset ignored for Link FROM_C3-257_TO_C3-172
  WARNING 03: negative offset ignored for Link FROM_C3-25_TO_C3-24
  WARNING 03: negative offset ignored for Link FROM_C3-266_TO_C3-54
  WARNING 03: negative offset ignored for Link FROM_C3-269_TO_C3-121
  WARNING 03: negative offset ignored for Link FROM_C3-26_TO_C3-272
  WARNING 04: minimum elevation drop used for Conduit FROM_C3-270_TO_C3-145
  WARNING 03: negative offset ignored for Link FROM_C3-273_TO_C3-51
  WARNING 03: negative offset ignored for Link FROM_C3-280_TO_C3-279
  WARNING 03: negative offset ignored for Link FROM_C3-281_TO_C3-280
  WARNING 03: negative offset ignored for Link FROM_C3-282_TO_C3-281
  WARNING 03: negative offset ignored for Link FROM_C3-283_TO_C3-282
  WARNING 03: negative offset ignored for Link FROM_C3-285_TO_C3-183
  WARNING 03: negative offset ignored for Link FROM_C3-286_TO_C3-285
  WARNING 03: negative offset ignored for Link FROM_C3-287_TO_C3-286
  WARNING 03: negative offset ignored for Link FROM_C3-28_TO_C3-27
  WARNING 03: negative offset ignored for Link FROM_C3-31_TO_C3-30
  WARNING 03: negative offset ignored for Link FROM_C3-33_TO_C3-34
  WARNING 03: negative offset ignored for Link FROM_C3-41_TO_C3-38
  WARNING 03: negative offset ignored for Link FROM_C3-42_TO_C3-41
  WARNING 03: negative offset ignored for Link FROM_C3-44_TO_C3-43
  WARNING 03: negative offset ignored for Link FROM_C3-46_TO_C3-45
  WARNING 03: negative offset ignored for Link FROM_C3-48_TO_C3-52
  WARNING 03: negative offset ignored for Link FROM_C3-49_TO_C3-48
  WARNING 03: negative offset ignored for Link FROM_C3-51_TO_C3-50
  WARNING 03: negative offset ignored for Link FROM_C3-52_TO_C3-55
  WARNING 03: negative offset ignored for Link FROM_C3-53_TO_C3-52
  WARNING 03: negative offset ignored for Link FROM_C3-54_TO_C3-53
  WARNING 03: negative offset ignored for Link FROM_C3-56_TO_C3-55
  WARNING 03: negative offset ignored for Link FROM_C3-60_TO_C3-59
  WARNING 03: negative offset ignored for Link FROM_C3-61_TO_C3-277
  WARNING 03: negative offset ignored for Link FROM_C3-65_TO_C3-236
  WARNING 03: negative offset ignored for Link FROM_C3-69_TO_C3-68
  WARNING 03: negative offset ignored for Link FROM_C3-76_TO_C3-65
  WARNING 04: minimum elevation drop used for Conduit FROM_C3-77_TO_C3-270
  WARNING 03: negative offset ignored for Link FROM_C3-7_TO_C3-183
  WARNING 03: negative offset ignored for Link FROM_C3-81_TO_C3-80
  WARNING 03: negative offset ignored for Link FROM_C3-82_TO_C3-80
  WARNING 03: negative offset ignored for Link FROM_C3-87_TO_C3-86
  WARNING 03: negative offset ignored for Link FROM_C3-90_TO_C3-88
  WARNING 03: negative offset ignored for Link FROM_C3-91_TO_C3-90
  WARNING 03: negative offset ignored for Link FROM_C3-94_TO_C3-93
  WARNING 03: negative offset ignored for Link FROM_C3-9_TO_C3-6
  WARNING 03: negative offset ignored for Link FROM_C4-104_TO_C3-111
  WARNING 03: negative offset ignored for Link FROM_C4-110_TO_C3-127
  WARNING 03: negative offset ignored for Link FROM_C4-112_TO_C4-113
  WARNING 03: negative offset ignored for Link FROM_C4-115_TO_C3-101
  WARNING 03: negative offset ignored for Link FROM_C4-117_TO_C3-103
  WARNING 03: negative offset ignored for Link FROM_C4-120_TO_C4-119
  WARNING 03: negative offset ignored for Link FROM_C4-126_TO_C4-102
  WARNING 03: negative offset ignored for Link FROM_C4-129_TO_C4-105
  WARNING 03: negative offset ignored for Link FROM_C4-12_TO_C4-11
  WARNING 03: negative offset ignored for Link FROM_C4-130_TO_C4-129
  WARNING 03: negative offset ignored for Link FROM_C4-132_TO_C4-131
  WARNING 03: negative offset ignored for Link FROM_C4-135_TO_C4-111
  WARNING 03: negative offset ignored for Link FROM_C4-137_TO_C4-114
  WARNING 03: negative offset ignored for Link FROM_C4-139_TO_C4-116
  WARNING 03: negative offset ignored for Link FROM_C4-13_TO_C4-11
  WARNING 03: negative offset ignored for Link FROM_C4-140_TO_C4-139
  WARNING 03: negative offset ignored for Link FROM_C4-142_TO_C4-31
  WARNING 03: negative offset ignored for Link FROM_C4-142_TO_C4-31
  WARNING 03: negative offset ignored for Link FROM_C4-144_TO_C4-142
  WARNING 03: negative offset ignored for Link FROM_C4-149_TO_C4-148
  WARNING 03: negative offset ignored for Link FROM_C4-150_TO_C4-143
  WARNING 03: negative offset ignored for Link FROM_C4-155_TO_C4-154
  WARNING 03: negative offset ignored for Link FROM_C4-156_TO_C4-155
  WARNING 03: negative offset ignored for Link FROM_C4-158_TO_C4-157
  WARNING 03: negative offset ignored for Link FROM_C4-159_TO_C4-158
  WARNING 03: negative offset ignored for Link FROM_C4-15_TO_C4-14
  WARNING 03: negative offset ignored for Link FROM_C4-161_TO_C4-160
  WARNING 03: negative offset ignored for Link FROM_C4-163_TO_C4-124
  WARNING 03: negative offset ignored for Link FROM_C4-165_TO_C4-164
  WARNING 03: negative offset ignored for Link FROM_C4-169_TO_C4-168
  WARNING 03: negative offset ignored for Link FROM_C4-16_TO_B4-61
  WARNING 03: negative offset ignored for Link FROM_C4-174_TO_C4-173
  WARNING 03: negative offset ignored for Link FROM_C4-178_TO_C4-177
  WARNING 03: negative offset ignored for Link FROM_C4-179_TO_C4-169
  WARNING 03: negative offset ignored for Link FROM_C4-185_TO_C4-184
  WARNING 03: negative offset ignored for Link FROM_C4-186_TO_C4-185
  WARNING 03: negative offset ignored for Link FROM_C4-187_TO_C4-186
  WARNING 03: negative offset ignored for Link FROM_C4-188_TO_C4-189
  WARNING 03: negative offset ignored for Link FROM_C4-191_TO_C4-192
  WARNING 03: negative offset ignored for Link FROM_C4-193_TO_C4-192
  WARNING 03: negative offset ignored for Link FROM_C4-197_TO_C4-196
  WARNING 03: negative offset ignored for Link FROM_C4-199_TO_C4-198
  WARNING 03: negative offset ignored for Link FROM_C4-19_TO_B4-31
  WARNING 03: negative offset ignored for Link FROM_C4-200_TO_C4-327
  WARNING 03: negative offset ignored for Link FROM_C4-204_TO_C4-203
  WARNING 03: negative offset ignored for Link FROM_C4-206_TO_C4-207
  WARNING 03: negative offset ignored for Link FROM_C4-211_TO_C4-210
  WARNING 03: negative offset ignored for Link FROM_C4-213_TO_C4-212
  WARNING 03: negative offset ignored for Link FROM_C4-214_TO_C4-213
  WARNING 03: negative offset ignored for Link FROM_C4-221_TO_C4-220
  WARNING 03: negative offset ignored for Link FROM_C4-222_TO_C4-221
  WARNING 03: negative offset ignored for Link FROM_C4-224_TO_C4-223
  WARNING 03: negative offset ignored for Link FROM_C4-225_TO_C4-226
  WARNING 03: negative offset ignored for Link FROM_C4-226_TO_C4-227
  WARNING 03: negative offset ignored for Link FROM_C4-231_TO_C4-228
  WARNING 03: negative offset ignored for Link FROM_C4-232_TO_C4-231
  WARNING 03: negative offset ignored for Link FROM_C4-232_TO_C4-231
  WARNING 03: negative offset ignored for Link FROM_C4-233_TO_C4-232
  WARNING 03: negative offset ignored for Link FROM_C4-234_TO_C4-233
  WARNING 03: negative offset ignored for Link FROM_C4-234_TO_C4-235
  WARNING 03: negative offset ignored for Link FROM_C4-236_TO_C5-145
  WARNING 03: negative offset ignored for Link FROM_C4-23_TO_C4-22
  WARNING 03: negative offset ignored for Link FROM_C4-242_TO_C5-108
  WARNING 03: negative offset ignored for Link FROM_C4-243_TO_C4-318
  WARNING 03: negative offset ignored for Link FROM_C4-244_TO_C4-243
  WARNING 03: negative offset ignored for Link FROM_C4-245_TO_C4-319
  WARNING 03: negative offset ignored for Link FROM_C4-24_TO_C4-23
  WARNING 03: negative offset ignored for Link FROM_C4-257_TO_C4-123
  WARNING 03: negative offset ignored for Link FROM_C4-25_TO_C4-24
  WARNING 03: negative offset ignored for Link FROM_C4-260_TO_C4-115
  WARNING 03: negative offset ignored for Link FROM_C4-273_TO_C4-172
  WARNING 03: negative offset ignored for Link FROM_C4-279_TO_C4-191
  WARNING 03: negative offset ignored for Link FROM_C4-27_TO_C4-26
  WARNING 03: negative offset ignored for Link FROM_C4-28_TO_C4-29
  WARNING 03: negative offset ignored for Link FROM_C4-29_TO_C4-30
  WARNING 03: negative offset ignored for Link FROM_C4-312_TO_C4-146
  WARNING 03: negative offset ignored for Link FROM_C4-313_TO_C4-210
  WARNING 03: negative offset ignored for Link FROM_C4-316_TO_C4-143
  WARNING 03: negative offset ignored for Link FROM_C4-319_TO_C4-244
  WARNING 03: negative offset ignored for Link FROM_C4-31_TO_C4-29
  WARNING 03: negative offset ignored for Link FROM_C4-31_TO_C4-29
  WARNING 03: negative offset ignored for Link FROM_C4-325_TO_C4-326
  WARNING 03: negative offset ignored for Link FROM_C4-326_TO_C4-327
  WARNING 03: negative offset ignored for Link FROM_C4-328_TO_C4-112
  WARNING 03: negative offset ignored for Link FROM_C4-32_TO_C4-142
  WARNING 03: negative offset ignored for Link FROM_C4-32_TO_C4-142
  WARNING 03: negative offset ignored for Link FROM_C4-33_TO_C4-32
  WARNING 03: negative offset ignored for Link FROM_C4-33_TO_C4-32
  WARNING 03: negative offset ignored for Link FROM_C4-34_TO_C4-33
  WARNING 03: negative offset ignored for Link FROM_C4-34_TO_C4-33
  WARNING 03: negative offset ignored for Link FROM_C4-35_TO_C4-34
  WARNING 03: negative offset ignored for Link FROM_C4-35_TO_C4-34
  WARNING 03: negative offset ignored for Link FROM_C4-36_TO_C4-35
  WARNING 03: negative offset ignored for Link FROM_C4-36_TO_C4-35
  WARNING 03: negative offset ignored for Link FROM_C4-37_TO_C4-36
  WARNING 03: negative offset ignored for Link FROM_C4-37_TO_C4-36
  WARNING 03: negative offset ignored for Link FROM_C4-38_TO_C4-37
  WARNING 03: negative offset ignored for Link FROM_C4-38_TO_C4-37
  WARNING 03: negative offset ignored for Link FROM_C4-39_TO_C4-38
  WARNING 03: negative offset ignored for Link FROM_C4-40_TO_C4-41
  WARNING 03: negative offset ignored for Link FROM_C4-42_TO_C4-33
  WARNING 03: negative offset ignored for Link FROM_C4-44_TO_C4-45
  WARNING 03: negative offset ignored for Link FROM_C4-45_TO_C4-46
  WARNING 03: negative offset ignored for Link FROM_C4-47_TO_C4-46
  WARNING 03: negative offset ignored for Link FROM_C4-51_TO_C4-29
  WARNING 03: negative offset ignored for Link FROM_C4-53_TO_C4-28
  WARNING 03: negative offset ignored for Link FROM_C4-54_TO_C4-53
  WARNING 03: negative offset ignored for Link FROM_C4-54_TO_C4-53
  WARNING 03: negative offset ignored for Link FROM_C4-55_TO_C4-54
  WARNING 03: negative offset ignored for Link FROM_C4-55_TO_C4-54
  WARNING 03: negative offset ignored for Link FROM_C4-58_TO_C4-59
  WARNING 03: negative offset ignored for Link FROM_C4-59_TO_C4-26
  WARNING 03: negative offset ignored for Link FROM_C4-60_TO_C4-61
  WARNING 03: negative offset ignored for Link FROM_C4-63_TO_C4-65
  WARNING 03: negative offset ignored for Link FROM_C4-66_TO_C4-67
  WARNING 03: negative offset ignored for Link FROM_C4-69_TO_C4-68
  WARNING 03: negative offset ignored for Link FROM_C4-75_TO_B4-85
  WARNING 03: negative offset ignored for Link FROM_C4-82_TO_C4-14
  WARNING 03: negative offset ignored for Link FROM_C4-83_TO_C4-78
  WARNING 03: negative offset ignored for Link FROM_C4-89_TO_C4-88
  WARNING 03: negative offset ignored for Link FROM_C4-92_TO_C4-91
  WARNING 03: negative offset ignored for Link FROM_C4-95_TO_C4-329
  WARNING 03: negative offset ignored for Link FROM_C5-101_TO_C5-99
  WARNING 03: negative offset ignored for Link FROM_C5-103_TO_C5-102
  WARNING 03: negative offset ignored for Link FROM_C5-104_TO_C5-102
  WARNING 03: negative offset ignored for Link FROM_C5-105_TO_C5-104
  WARNING 03: negative offset ignored for Link FROM_C5-106_TO_C5-105
  WARNING 03: negative offset ignored for Link FROM_C5-107_TO_C4-245
  WARNING 03: negative offset ignored for Link FROM_C5-10_TO_C5-9
  WARNING 03: negative offset ignored for Link FROM_C5-114_TO_C5-110
  WARNING 03: negative offset ignored for Link FROM_C5-116_TO_C5-134
  WARNING 03: negative offset ignored for Link FROM_C5-117_TO_C5-176
  WARNING 03: negative offset ignored for Link FROM_C5-118_TO_C5-117
  WARNING 03: negative offset ignored for Link FROM_C5-120_TO_C5-121
  WARNING 03: negative offset ignored for Link FROM_C5-124_TO_C5-123
  WARNING 03: negative offset ignored for Link FROM_C5-127_TO_C5-90
  WARNING 03: negative offset ignored for Link FROM_C5-127_TO_C5-90
  WARNING 03: negative offset ignored for Link FROM_C5-128_TO_C5-84
  WARNING 03: negative offset ignored for Link FROM_C5-129_TO_C5-88
  WARNING 03: negative offset ignored for Link FROM_C5-130_TO_C5-104
  WARNING 03: negative offset ignored for Link FROM_C5-131_TO_C5-30
  WARNING 03: negative offset ignored for Link FROM_C5-133_TO_C5-68
  WARNING 03: negative offset ignored for Link FROM_C5-135_TO_C5-64
  WARNING 03: negative offset ignored for Link FROM_C5-136_TO_C5-67
  WARNING 03: negative offset ignored for Link FROM_C5-136_TO_C5-67
  WARNING 03: negative offset ignored for Link FROM_C5-137_TO_C5-93
  WARNING 03: negative offset ignored for Link FROM_C5-137_TO_C5-93
  WARNING 03: negative offset ignored for Link FROM_C5-138_TO_C5-55
  WARNING 03: negative offset ignored for Link FROM_C5-141_TO_C5-64
  WARNING 03: negative offset ignored for Link FROM_C5-142_TO_C5-141
  WARNING 03: negative offset ignored for Link FROM_C5-142_TO_C5-141
  WARNING 03: negative offset ignored for Link FROM_C5-146_TO_C5-142
  WARNING 03: negative offset ignored for Link FROM_C5-146_TO_C5-142
  WARNING 03: negative offset ignored for Link FROM_C5-147_TO_C4-208
  WARNING 03: negative offset ignored for Link FROM_C5-149_TO_C5-146
  WARNING 03: negative offset ignored for Link FROM_C5-151_TO_C5-161
  WARNING 03: negative offset ignored for Link FROM_C5-151_TO_C5-161
  WARNING 03: negative offset ignored for Link FROM_C5-152_TO_C5-80
  WARNING 03: negative offset ignored for Link FROM_C5-153_TO_C5-107
  WARNING 03: negative offset ignored for Link FROM_C5-154_TO_C5-125
  WARNING 03: negative offset ignored for Link FROM_C5-161_TO_C5-44
  WARNING 03: negative offset ignored for Link FROM_C5-163_TO_C5-95
  WARNING 03: negative offset ignored for Link FROM_C5-163_TO_C5-95
  WARNING 03: negative offset ignored for Link FROM_C5-164_TO_C4-227
  WARNING 03: negative offset ignored for Link FROM_C5-165_TO_C5-52
  WARNING 03: negative offset ignored for Link FROM_C5-165_TO_C5-52
  WARNING 03: negative offset ignored for Link FROM_C5-166_TO_C5-127
  WARNING 03: negative offset ignored for Link FROM_C5-167_TO_C5-127
  WARNING 03: negative offset ignored for Link FROM_C5-169_TO_C5-83
  WARNING 03: negative offset ignored for Link FROM_C5-171_TO_C5-170
  WARNING 03: negative offset ignored for Link FROM_C5-174_TO_C5-173
  WARNING 03: negative offset ignored for Link FROM_C5-175_TO_C5-226
  WARNING 03: negative offset ignored for Link FROM_C5-175_TO_C5-226
  WARNING 03: negative offset ignored for Link FROM_C5-182_TO_C5-183
  WARNING 03: negative offset ignored for Link FROM_C5-187_TO_C5-186
  WARNING 03: negative offset ignored for Link FROM_C5-188_TO_C5-189
  WARNING 03: negative offset ignored for Link FROM_C5-189_TO_C5-202
  WARNING 03: negative offset ignored for Link FROM_C5-192_TO_C5-66
  WARNING 03: negative offset ignored for Link FROM_C5-194_TO_C5-193
  WARNING 03: negative offset ignored for Link FROM_C5-195_TO_C5-196
  WARNING 03: negative offset ignored for Link FROM_C5-196_TO_C5-197
  WARNING 03: negative offset ignored for Link FROM_C5-197_TO_C5-189
  WARNING 03: negative offset ignored for Link FROM_C5-199_TO_C5-198
  WARNING 03: negative offset ignored for Link FROM_C5-200_TO_C5-196
  WARNING 03: negative offset ignored for Link FROM_C5-202_TO_C5-190
  WARNING 03: negative offset ignored for Link FROM_C5-206_TO_C5-151
  WARNING 03: negative offset ignored for Link FROM_C5-208_TO_C5-207
  WARNING 03: negative offset ignored for Link FROM_C5-209_TO_C5-210
  WARNING 03: negative offset ignored for Link FROM_C5-211_TO_C5-210
  WARNING 03: negative offset ignored for Link FROM_C5-216_TO_C5-171
  WARNING 03: negative offset ignored for Link FROM_C5-217_TO_C5-218
  WARNING 03: negative offset ignored for Link FROM_C5-220_TO_C5-221
  WARNING 03: negative offset ignored for Link FROM_C5-221_TO_C5-216
  WARNING 03: negative offset ignored for Link FROM_C5-222_TO_C5-149
  WARNING 03: negative offset ignored for Link FROM_C5-223_TO_C5-222
  WARNING 03: negative offset ignored for Link FROM_C5-223_TO_C5-222
  WARNING 03: negative offset ignored for Link FROM_C5-224_TO_C5-223
  WARNING 03: negative offset ignored for Link FROM_C5-226_TO_C5-174
  WARNING 03: negative offset ignored for Link FROM_C5-228_TO_C5-229
  WARNING 03: negative offset ignored for Link FROM_C5-229_TO_C5-230
  WARNING 03: negative offset ignored for Link FROM_C5-231_TO_C5-79
  WARNING 03: negative offset ignored for Link FROM_C5-232_TO_C5-206
  WARNING 03: negative offset ignored for Link FROM_C5-233_TO_C5-232
  WARNING 03: negative offset ignored for Link FROM_C5-235_TO_C5-232
  WARNING 03: negative offset ignored for Link FROM_C5-235_TO_C5-232
  WARNING 03: negative offset ignored for Link FROM_C5-240_TO_C5-223
  WARNING 03: negative offset ignored for Link FROM_C5-240_TO_C5-223
  WARNING 03: negative offset ignored for Link FROM_C5-24_TO_C5-23
  WARNING 03: negative offset ignored for Link FROM_C5-27_TO_C5-26
  WARNING 03: negative offset ignored for Link FROM_C5-28_TO_C5-27
  WARNING 03: negative offset ignored for Link FROM_C5-39_TO_C5-38
  WARNING 03: negative offset ignored for Link FROM_C5-41_TO_C5-40
  WARNING 03: negative offset ignored for Link FROM_C5-42_TO_C5-41
  WARNING 03: negative offset ignored for Link FROM_C5-42_TO_C5-41
  WARNING 03: negative offset ignored for Link FROM_C5-43_TO_C5-42
  WARNING 03: negative offset ignored for Link FROM_C5-43_TO_C5-42
  WARNING 03: negative offset ignored for Link FROM_C5-44_TO_C5-42
  WARNING 03: negative offset ignored for Link FROM_C5-45_TO_C5-46
  WARNING 03: negative offset ignored for Link FROM_C5-46_TO_C5-47
  WARNING 03: negative offset ignored for Link FROM_C5-48_TO_C5-49
  WARNING 03: negative offset ignored for Link FROM_C5-49_TO_C5-50
  WARNING 03: negative offset ignored for Link FROM_C5-51_TO_C5-53
  WARNING 03: negative offset ignored for Link FROM_C5-52_TO_C5-51
  WARNING 03: negative offset ignored for Link FROM_C5-53_TO_C5-54
  WARNING 03: negative offset ignored for Link FROM_C5-53_TO_C5-54
  WARNING 03: negative offset ignored for Link FROM_C5-54_TO_C5-21
  WARNING 03: negative offset ignored for Link FROM_C5-55_TO_C5-54
  WARNING 03: negative offset ignored for Link FROM_C5-56_TO_C5-53
  WARNING 03: negative offset ignored for Link FROM_C5-56_TO_C5-53
  WARNING 03: negative offset ignored for Link FROM_C5-57_TO_C5-56
  WARNING 03: negative offset ignored for Link FROM_C5-60_TO_C5-56
  WARNING 03: negative offset ignored for Link FROM_C5-62_TO_C5-61
  WARNING 03: negative offset ignored for Link FROM_C5-63_TO_C5-62
  WARNING 03: negative offset ignored for Link FROM_C5-63_TO_C5-62
  WARNING 03: negative offset ignored for Link FROM_C5-64_TO_C5-63
  WARNING 03: negative offset ignored for Link FROM_C5-67_TO_C5-192
  WARNING 03: negative offset ignored for Link FROM_C5-67_TO_C5-192
  WARNING 03: negative offset ignored for Link FROM_C5-68_TO_C5-67
  WARNING 03: negative offset ignored for Link FROM_C5-68_TO_C5-67
  WARNING 03: negative offset ignored for Link FROM_C5-69_TO_C5-133
  WARNING 03: negative offset ignored for Link FROM_C5-80_TO_C5-231
  WARNING 03: negative offset ignored for Link FROM_C5-81_TO_C5-80
  WARNING 03: negative offset ignored for Link FROM_C5-82_TO_C5-152
  WARNING 03: negative offset ignored for Link FROM_C5-83_TO_C5-82
  WARNING 03: negative offset ignored for Link FROM_C5-85_TO_C5-78
  WARNING 03: negative offset ignored for Link FROM_C5-86_TO_C5-85
  WARNING 03: negative offset ignored for Link FROM_C5-87_TO_C5-85
  WARNING 03: negative offset ignored for Link FROM_C5-88_TO_C5-87
  WARNING 03: negative offset ignored for Link FROM_C5-8_TO_C5-7
  WARNING 03: negative offset ignored for Link FROM_C5-90_TO_C5-89
  WARNING 03: negative offset ignored for Link FROM_C5-93_TO_C5-92
  WARNING 03: negative offset ignored for Link FROM_C5-94_TO_C5-89
  WARNING 03: negative offset ignored for Link FROM_C5-95_TO_C5-94
  WARNING 03: negative offset ignored for Link FROM_C5-95_TO_C5-94
  WARNING 03: negative offset ignored for Link FROM_C5-96_TO_C5-95
  WARNING 03: negative offset ignored for Link FROM_C6-117_TO_C6-118
  WARNING 03: negative offset ignored for Link FROM_C6-118_TO_C5-194
  WARNING 03: negative offset ignored for Link FROM_C6-121_TO_C6-120
  WARNING 03: negative offset ignored for Link FROM_C6-122_TO_C6-121
  WARNING 03: negative offset ignored for Link FROM_C6-123_TO_C6-115
  WARNING 03: negative offset ignored for Link FROM_C6-125_TO_C5-199
  WARNING 03: negative offset ignored for Link FROM_C6-128_TO_C6-127
  WARNING 03: negative offset ignored for Link FROM_C6-130_TO_C6-123
  WARNING 03: negative offset ignored for Link FROM_C6-132_TO_C6-155
  WARNING 03: negative offset ignored for Link FROM_C6-133_TO_C6-132
  WARNING 03: negative offset ignored for Link FROM_C6-135_TO_C6-129
  WARNING 03: negative offset ignored for Link FROM_C6-137_TO_C6-155
  WARNING 03: negative offset ignored for Link FROM_C6-139_TO_C5-208
  WARNING 03: negative offset ignored for Link FROM_C6-140_TO_C5-211
  WARNING 03: negative offset ignored for Link FROM_C6-140_TO_C5-211
  WARNING 03: negative offset ignored for Link FROM_C6-141_TO_C6-140
  WARNING 03: negative offset ignored for Link FROM_C6-142_TO_C6-140
  WARNING 03: negative offset ignored for Link FROM_C6-142_TO_C6-140
  WARNING 03: negative offset ignored for Link FROM_C6-147_TO_C6-219
  WARNING 03: negative offset ignored for Link FROM_C6-148_TO_C6-147
  WARNING 03: negative offset ignored for Link FROM_C6-15_TO_C6-14
  WARNING 03: negative offset ignored for Link FROM_C6-163_TO_C6-135
  WARNING 03: negative offset ignored for Link FROM_C6-164_TO_C6-163
  WARNING 03: negative offset ignored for Link FROM_C6-166_TO_C6-165
  WARNING 03: negative offset ignored for Link FROM_C6-167_TO_C6-166
  WARNING 03: negative offset ignored for Link FROM_C6-168_TO_C6-167
  WARNING 03: negative offset ignored for Link FROM_C6-169_TO_C6-191
  WARNING 03: negative offset ignored for Link FROM_C6-16_TO_C6-15
  WARNING 03: negative offset ignored for Link FROM_C6-16_TO_C6-15
  WARNING 03: negative offset ignored for Link FROM_C6-170_TO_C6-169
  WARNING 03: negative offset ignored for Link FROM_C6-171_TO_C6-170
  WARNING 03: negative offset ignored for Link FROM_C6-172_TO_C6-171
  WARNING 03: negative offset ignored for Link FROM_C6-176_TO_C6-153
  WARNING 03: negative offset ignored for Link FROM_C6-178_TO_C6-177
  WARNING 03: negative offset ignored for Link FROM_C6-17_TO_C6-16
  WARNING 03: negative offset ignored for Link FROM_C6-183_TO_C6-8
  WARNING 03: negative offset ignored for Link FROM_C6-186_TO_C6-185
  WARNING 03: negative offset ignored for Link FROM_C6-187_TO_C6-185
  WARNING 03: negative offset ignored for Link FROM_C6-188_TO_C6-187
  WARNING 03: negative offset ignored for Link FROM_C6-188_TO_C6-187
  WARNING 03: negative offset ignored for Link FROM_C6-189_TO_C6-188
  WARNING 03: negative offset ignored for Link FROM_C6-18_TO_C6-13
  WARNING 03: negative offset ignored for Link FROM_C6-190_TO_C6-189
  WARNING 03: negative offset ignored for Link FROM_C6-191_TO_C6-163
  WARNING 03: negative offset ignored for Link FROM_C6-195_TO_C6-194
  WARNING 03: negative offset ignored for Link FROM_C6-196_TO_C6-195
  WARNING 03: negative offset ignored for Link FROM_C6-196_TO_C6-195
  WARNING 03: negative offset ignored for Link FROM_C6-199_TO_C6-198
  WARNING 03: negative offset ignored for Link FROM_C6-19_TO_C6-99
  WARNING 03: negative offset ignored for Link FROM_C6-200_TO_C6-197
  WARNING 03: negative offset ignored for Link FROM_C6-201_TO_C6-200
  WARNING 03: negative offset ignored for Link FROM_C6-202_TO_C6-201
  WARNING 03: negative offset ignored for Link FROM_C6-205_TO_C6-204
  WARNING 03: negative offset ignored for Link FROM_C6-206_TO_C6-207
  WARNING 03: negative offset ignored for Link FROM_C6-208_TO_C6-200
  WARNING 03: negative offset ignored for Link FROM_C6-210_TO_C6-209
  WARNING 03: negative offset ignored for Link FROM_C6-211_TO_C6-209
  WARNING 03: negative offset ignored for Link FROM_C6-219_TO_C6-66
  WARNING 03: negative offset ignored for Link FROM_C6-21_TO_C6-18
  WARNING 03: negative offset ignored for Link FROM_C6-21_TO_C6-18
  WARNING 03: negative offset ignored for Link FROM_C6-22_TO_C6-21
  WARNING 03: negative offset ignored for Link FROM_C6-25_TO_C6-21
  WARNING 03: negative offset ignored for Link FROM_C6-25_TO_C6-21
  WARNING 03: negative offset ignored for Link FROM_C6-30_TO_C6-25
  WARNING 03: negative offset ignored for Link FROM_C6-41_TO_C6-40
  WARNING 03: negative offset ignored for Link FROM_C6-42_TO_C6-43
  WARNING 03: negative offset ignored for Link FROM_C6-43_TO_C6-44
  WARNING 03: negative offset ignored for Link FROM_C6-45_TO_C6-43
  WARNING 03: negative offset ignored for Link FROM_C6-49_TO_C6-51
  WARNING 03: negative offset ignored for Link FROM_C6-50_TO_C6-49
  WARNING 03: negative offset ignored for Link FROM_C6-51_TO_C6-68
  WARNING 03: negative offset ignored for Link FROM_C6-52_TO_C6-53
  WARNING 03: negative offset ignored for Link FROM_C6-52_TO_C6-53
  WARNING 03: negative offset ignored for Link FROM_C6-53_TO_C6-54
  WARNING 03: negative offset ignored for Link FROM_C6-57_TO_C6-51
  WARNING 03: negative offset ignored for Link FROM_C6-63_TO_C6-62
  WARNING 03: negative offset ignored for Link FROM_C6-71_TO_C6-45
  WARNING 03: negative offset ignored for Link FROM_C6-74_TO_C6-63
  WARNING 03: negative offset ignored for Link FROM_C6-81_TO_C6-90
  WARNING 03: negative offset ignored for Link FROM_C6-82_TO_C6-81
  WARNING 03: negative offset ignored for Link FROM_C6-87_TO_C6-86
  WARNING 03: negative offset ignored for Link FROM_C6-88_TO_C6-87
  WARNING 03: negative offset ignored for Link FROM_C6-8_TO_C6-7
  WARNING 03: negative offset ignored for Link FROM_C6-99_TO_C6-18
  WARNING 03: negative offset ignored for Link FROM_C7-11_TO_C7-10
  WARNING 03: negative offset ignored for Link FROM_C7-12_TO_C7-11
  WARNING 03: negative offset ignored for Link FROM_C7-12_TO_C7-11
  WARNING 03: negative offset ignored for Link FROM_C7-13_TO_C7-10
  WARNING 03: negative offset ignored for Link FROM_C7-14_TO_C7-13
  WARNING 03: negative offset ignored for Link FROM_C7-20_TO_C7-13
  WARNING 03: negative offset ignored for Link FROM_C7-20_TO_C7-13
  WARNING 03: negative offset ignored for Link FROM_C7-21_TO_C6-81
  WARNING 03: negative offset ignored for Link FROM_C7-25_TO_C7-20
  WARNING 03: negative offset ignored for Link FROM_C7-26_TO_C7-24
  WARNING 03: negative offset ignored for Link FROM_C7-27_TO_C6-120
  WARNING 03: negative offset ignored for Link FROM_C7-31_TO_C7-26
  WARNING 03: negative offset ignored for Link FROM_C7-31_TO_C7-26
  WARNING 03: negative offset ignored for Link FROM_C7-33_TO_C7-32
  WARNING 03: negative offset ignored for Link FROM_C7-34_TO_C7-11
  WARNING 03: negative offset ignored for Link FROM_C7-34_TO_C7-11
  WARNING 03: negative offset ignored for Link FROM_C7-35_TO_C7-12
  WARNING 03: negative offset ignored for Link FROM_C7-35_TO_C7-12
  WARNING 03: negative offset ignored for Link FROM_C7-39_TO_C7-92
  WARNING 03: negative offset ignored for Link FROM_C7-3_TO_C7-2
  WARNING 03: negative offset ignored for Link FROM_C7-44_TO_C7-29
  WARNING 03: negative offset ignored for Link FROM_C7-45_TO_C7-27
  WARNING 03: negative offset ignored for Link FROM_C7-47_TO_C6-121
  WARNING 03: negative offset ignored for Link FROM_C7-4_TO_C7-2
  WARNING 03: negative offset ignored for Link FROM_C7-50_TO_C7-69
  WARNING 03: negative offset ignored for Link FROM_C7-50_TO_C7-69
  WARNING 03: negative offset ignored for Link FROM_C7-52_TO_C7-44
  WARNING 03: negative offset ignored for Link FROM_C7-52_TO_C7-44
  WARNING 03: negative offset ignored for Link FROM_C7-53_TO_C7-52
  WARNING 03: negative offset ignored for Link FROM_C7-55_TO_C7-50
  WARNING 03: negative offset ignored for Link FROM_C7-57_TO_C7-58
  WARNING 03: negative offset ignored for Link FROM_C7-57_TO_C7-58
  WARNING 03: negative offset ignored for Link FROM_C7-58_TO_C7-59
  WARNING 03: negative offset ignored for Link FROM_C7-5_TO_C7-3
  WARNING 03: negative offset ignored for Link FROM_C7-60_TO_C7-87
  WARNING 03: negative offset ignored for Link FROM_C7-61_TO_C7-58
  WARNING 03: negative offset ignored for Link FROM_C7-62_TO_C7-57
  WARNING 03: negative offset ignored for Link FROM_C7-64_TO_C7-59
  WARNING 03: negative offset ignored for Link FROM_C7-65_TO_C7-64
  WARNING 03: negative offset ignored for Link FROM_C7-66_TO_C7-64
  WARNING 03: negative offset ignored for Link FROM_C7-67_TO_C7-46
  WARNING 03: negative offset ignored for Link FROM_C7-69_TO_C7-49
  WARNING 03: negative offset ignored for Link FROM_C7-6_TO_C7-4
  WARNING 03: negative offset ignored for Link FROM_C7-70_TO_C6-148
  WARNING 03: negative offset ignored for Link FROM_C7-70_TO_C6-148
  WARNING 03: negative offset ignored for Link FROM_C7-71_TO_C7-70
  WARNING 03: negative offset ignored for Link FROM_C7-71_TO_C7-70
  WARNING 03: negative offset ignored for Link FROM_C7-72_TO_C7-71
  WARNING 03: negative offset ignored for Link FROM_C7-73_TO_C7-72
  WARNING 03: negative offset ignored for Link FROM_C7-74_TO_C7-73
  WARNING 03: negative offset ignored for Link FROM_C7-75_TO_C7-73
  WARNING 03: negative offset ignored for Link FROM_C7-77_TO_C7-76
  WARNING 03: negative offset ignored for Link FROM_C7-78_TO_C7-77
  WARNING 03: negative offset ignored for Link FROM_C7-78_TO_C7-77
  WARNING 03: negative offset ignored for Link FROM_C7-82_TO_C7-81
  WARNING 03: negative offset ignored for Link FROM_C7-84_TO_C7-83
  WARNING 03: negative offset ignored for Link FROM_C7-85_TO_C7-84
  WARNING 03: negative offset ignored for Link FROM_C7-86_TO_C7-84
  WARNING 03: negative offset ignored for Link FROM_C7-86_TO_C7-84
  WARNING 03: negative offset ignored for Link FROM_C7-92_TO_C7-91
  WARNING 03: negative offset ignored for Link FROM_C7-9_TO_C7-8
  WARNING 03: negative offset ignored for Link FROM_C9-14_TO_C9-15
  WARNING 03: negative offset ignored for Link FROM_C9-21_TO_C9-14
  WARNING 03: negative offset ignored for Link FROM_C9-23_TO_C9-22
  WARNING 03: negative offset ignored for Link FROM_C9-24_TO_C9-23
  WARNING 03: negative offset ignored for Link FROM_C9-24_TO_C9-23
  WARNING 03: negative offset ignored for Link FROM_C9-25_TO_C9-24
  WARNING 03: negative offset ignored for Link FROM_C9-27_TO_C9-26
  WARNING 03: negative offset ignored for Link FROM_C9-29_TO_C9-27
  WARNING 03: negative offset ignored for Link FROM_C9-30_TO_C9-22
  WARNING 03: negative offset ignored for Link FROM_C9-31_TO_C9-30
  WARNING 03: negative offset ignored for Link FROM_D1-6_TO_D1-1
  WARNING 03: negative offset ignored for Link FROM_D2-100_TO_D2-99
  WARNING 03: negative offset ignored for Link FROM_D2-106_TO_D2-120
  WARNING 03: negative offset ignored for Link FROM_D2-109_TO_D2-108
  WARNING 03: negative offset ignored for Link FROM_D2-116_TO_JUB118
  WARNING 03: negative offset ignored for Link FROM_D2-121_TO_D2-100
  WARNING 03: negative offset ignored for Link FROM_D2-122_TO_D2-120
  WARNING 03: negative offset ignored for Link FROM_D2-123_TO_D2-143
  WARNING 03: negative offset ignored for Link FROM_D2-124_TO_D2-123
  WARNING 03: negative offset ignored for Link FROM_D2-127_TO_D2-143
  WARNING 03: negative offset ignored for Link FROM_D2-129_TO_D2-127
  WARNING 03: negative offset ignored for Link FROM_D2-130_TO_D2-129
  WARNING 03: negative offset ignored for Link FROM_D2-131_TO_D2-130
  WARNING 03: negative offset ignored for Link FROM_D2-133_TO_D2-64
  WARNING 03: negative offset ignored for Link FROM_D2-134_TO_D2-129
  WARNING 03: negative offset ignored for Link FROM_D2-140_TO_D2-139
  WARNING 03: negative offset ignored for Link FROM_D2-145_TO_D2-144
  WARNING 03: negative offset ignored for Link FROM_D2-148_TO_D2-147
  WARNING 03: negative offset ignored for Link FROM_D2-151_TO_D2-150
  WARNING 03: negative offset ignored for Link FROM_D2-153_TO_D2-158
  WARNING 03: negative offset ignored for Link FROM_D2-154_TO_D2-153
  WARNING 03: negative offset ignored for Link FROM_D2-157_TO_D2-156
  WARNING 03: negative offset ignored for Link FROM_D2-161_TO_D2-162
  WARNING 03: negative offset ignored for Link FROM_D2-162_TO_D2-163
  WARNING 03: negative offset ignored for Link FROM_D2-164_TO_D2-165
  WARNING 03: negative offset ignored for Link FROM_D2-165_TO_D2-166
  WARNING 03: negative offset ignored for Link FROM_D2-171_TO_D2-85
  WARNING 03: negative offset ignored for Link FROM_D2-174_TO_D2-171
  WARNING 03: negative offset ignored for Link FROM_D2-177_TO_D2-105
  WARNING 03: negative offset ignored for Link FROM_D2-178_TO_D2-170
  WARNING 03: negative offset ignored for Link FROM_D2-181_TO_D2-180
  WARNING 04: minimum elevation drop used for Conduit FROM_D2-185_TO_D2-184
  WARNING 03: negative offset ignored for Link FROM_D2-188_TO_D2-184
  WARNING 03: negative offset ignored for Link FROM_D2-189_TO_D2-188
  WARNING 04: minimum elevation drop used for Conduit FROM_D2-190_TO_D2-10
  WARNING 03: negative offset ignored for Link FROM_D2-191_TO_D2-152
  WARNING 03: negative offset ignored for Link FROM_D2-193_TO_D2-104
  WARNING 03: negative offset ignored for Link FROM_D2-195_TO_D2-260
  WARNING 03: negative offset ignored for Link FROM_D2-196_TO_D2-23
  WARNING 03: negative offset ignored for Link FROM_D2-197_TO_D2-196
  WARNING 03: negative offset ignored for Link FROM_D2-204_TO_D2-203
  WARNING 03: negative offset ignored for Link FROM_D2-210_TO_D2-211
  WARNING 03: negative offset ignored for Link FROM_D2-211_TO_D2-212
  WARNING 03: negative offset ignored for Link FROM_D2-214_TO_D2-215
  WARNING 03: negative offset ignored for Link FROM_D2-215_TO_D2-156
  WARNING 03: negative offset ignored for Link FROM_D2-219_TO_D2-232
  WARNING 03: negative offset ignored for Link FROM_D2-220_TO_D2-219
  WARNING 03: negative offset ignored for Link FROM_D2-222_TO_D2-217
  WARNING 03: negative offset ignored for Link FROM_D2-223_TO_D2-222
  WARNING 03: negative offset ignored for Link FROM_D2-224_TO_D2-223
  WARNING 03: negative offset ignored for Link FROM_D2-226_TO_D2-227
  WARNING 03: negative offset ignored for Link FROM_D2-227_TO_D2-140
  WARNING 03: negative offset ignored for Link FROM_D2-22_TO_D2-21
  WARNING 03: negative offset ignored for Link FROM_D2-232_TO_D2-212
  WARNING 03: negative offset ignored for Link FROM_D2-23_TO_D2-58
  WARNING 03: negative offset ignored for Link FROM_D2-240_TO_D2-241
  WARNING 03: negative offset ignored for Link FROM_D2-241_TO_D2-242
  WARNING 03: negative offset ignored for Link FROM_D2-243_TO_D2-242
  WARNING 03: negative offset ignored for Link FROM_D2-249_TO_D2-49
  WARNING 03: negative offset ignored for Link FROM_D2-250_TO_D2-249
  WARNING 03: negative offset ignored for Link FROM_D2-251_TO_D2-250
  WARNING 03: negative offset ignored for Link FROM_D2-255_TO_D2-254
  WARNING 03: negative offset ignored for Link FROM_D2-257_TO_D2-258
  WARNING 03: negative offset ignored for Link FROM_D2-259_TO_D2-24
  WARNING 03: negative offset ignored for Link FROM_D2-25_TO_D2-259
  WARNING 03: negative offset ignored for Link FROM_D2-260_TO_D2-146
  WARNING 03: negative offset ignored for Link FROM_D2-262_TO_D2-261
  WARNING 03: negative offset ignored for Link FROM_D2-263_TO_D2-262
  WARNING 03: negative offset ignored for Link FROM_D2-264_TO_C2-164
  WARNING 03: negative offset ignored for Link FROM_D2-26_TO_D2-25
  WARNING 03: negative offset ignored for Link FROM_D2-27_TO_D2-26
  WARNING 03: negative offset ignored for Link FROM_D2-31_TO_D2-32
  WARNING 03: negative offset ignored for Link FROM_D2-32_TO_D2-256
  WARNING 03: negative offset ignored for Link FROM_D2-37_TO_D2-36
  WARNING 03: negative offset ignored for Link FROM_D2-39_TO_D2-38
  WARNING 03: negative offset ignored for Link FROM_D2-3_TO_D2-126
  WARNING 03: negative offset ignored for Link FROM_D2-48_TO_D2-249
  WARNING 03: negative offset ignored for Link FROM_D2-50_TO_D2-27
  WARNING 03: negative offset ignored for Link FROM_D2-52_TO_D2-51
  WARNING 03: negative offset ignored for Link FROM_D2-54_TO_D2-47
  WARNING 03: negative offset ignored for Link FROM_D2-56_TO_D2-55
  WARNING 03: negative offset ignored for Link FROM_D2-58_TO_D2-59
  WARNING 03: negative offset ignored for Link FROM_D2-60_TO_D2-191
  WARNING 03: negative offset ignored for Link FROM_D2-63_TO_D2-57
  WARNING 03: negative offset ignored for Link FROM_D2-64_TO_D2-63
  WARNING 03: negative offset ignored for Link FROM_D2-66_TO_D2-65
  WARNING 03: negative offset ignored for Link FROM_D2-70_TO_D2-69
  WARNING 03: negative offset ignored for Link FROM_D2-73_TO_D2-72
  WARNING 03: negative offset ignored for Link FROM_D2-82_TO_D2-81
  WARNING 03: negative offset ignored for Link FROM_D2-84_TO_D2-83
  WARNING 03: negative offset ignored for Link FROM_D2-89_TO_D2-80
  WARNING 03: negative offset ignored for Link FROM_D2-90_TO_D2-89
  WARNING 03: negative offset ignored for Link FROM_D2-91_TO_D2-90
  WARNING 03: negative offset ignored for Link FROM_D2-92_TO_D2-91
  WARNING 03: negative offset ignored for Link FROM_D2-93_TO_D2-92
  WARNING 03: negative offset ignored for Link FROM_D2-96_TO_D2-97
  WARNING 03: negative offset ignored for Link FROM_D3-106_TO_D3-102
  WARNING 03: negative offset ignored for Link FROM_D3-107_TO_D3-106
  WARNING 03: negative offset ignored for Link FROM_D3-109_TO_D3-107
  WARNING 03: negative offset ignored for Link FROM_D3-113_TO_D3-118
  WARNING 03: negative offset ignored for Link FROM_D3-114_TO_D3-113
  WARNING 03: negative offset ignored for Link FROM_D3-115_TO_D3-334
  WARNING 03: negative offset ignored for Link FROM_D3-116_TO_D3-334
  WARNING 03: negative offset ignored for Link FROM_D3-117_TO_D3-116
  WARNING 03: negative offset ignored for Link FROM_D3-118_TO_D3-385
  WARNING 03: negative offset ignored for Link FROM_D3-119_TO_D3-120
  WARNING 03: negative offset ignored for Link FROM_D3-11_TO_D3-10
  WARNING 03: negative offset ignored for Link FROM_D3-122_TO_D3-124
  WARNING 03: negative offset ignored for Link FROM_D3-124_TO_D3-115
  WARNING 03: negative offset ignored for Link FROM_D3-125_TO_D3-124
  WARNING 03: negative offset ignored for Link FROM_D3-129_TO_D3-333
  WARNING 03: negative offset ignored for Link FROM_D3-12_TO_D3-4
  WARNING 03: negative offset ignored for Link FROM_D3-130_TO_D3-129
  WARNING 03: negative offset ignored for Link FROM_D3-132_TO_D3-131
  WARNING 03: negative offset ignored for Link FROM_D3-135_TO_D3-133
  WARNING 03: negative offset ignored for Link FROM_D3-136_TO_D3-134
  WARNING 03: negative offset ignored for Link FROM_D3-138_TO_D3-137
  WARNING 03: negative offset ignored for Link FROM_D3-139_TO_D3-140
  WARNING 03: negative offset ignored for Link FROM_D3-143_TO_D3-142
  WARNING 03: negative offset ignored for Link FROM_D3-145_TO_D3-121
  WARNING 03: negative offset ignored for Link FROM_D3-149_TO_D3-147
  WARNING 03: negative offset ignored for Link FROM_D3-150_TO_D3-149
  WARNING 03: negative offset ignored for Link FROM_D3-154_TO_D3-152
  WARNING 03: negative offset ignored for Link FROM_D3-155_TO_D3-149
  WARNING 03: negative offset ignored for Link FROM_D3-156_TO_D3-155
  WARNING 03: negative offset ignored for Link FROM_D3-157_TO_D3-358
  WARNING 03: negative offset ignored for Link FROM_D3-158_TO_D3-157
  WARNING 03: negative offset ignored for Link FROM_D3-159_TO_D3-158
  WARNING 03: negative offset ignored for Link FROM_D3-15_TO_D3-5
  WARNING 03: negative offset ignored for Link FROM_D3-160_TO_D3-159
  WARNING 03: negative offset ignored for Link FROM_D3-161_TO_D3-160
  WARNING 03: negative offset ignored for Link FROM_D3-163_TO_D3-164
  WARNING 03: negative offset ignored for Link FROM_D3-171_TO_D3-303
  WARNING 03: negative offset ignored for Link FROM_D3-172_TO_D3-171
  WARNING 03: negative offset ignored for Link FROM_D3-177_TO_D3-338
  WARNING 03: negative offset ignored for Link FROM_D3-17_TO_D3-15
  WARNING 03: negative offset ignored for Link FROM_D3-180_TO_D3-178
  WARNING 03: negative offset ignored for Link FROM_D3-181_TO_D3-174
  WARNING 03: negative offset ignored for Link FROM_D3-183_TO_D3-184
  WARNING 03: negative offset ignored for Link FROM_D3-186_TO_D3-185
  WARNING 03: negative offset ignored for Link FROM_D3-189_TO_D3-188
  WARNING 03: negative offset ignored for Link FROM_D3-193_TO_D3-192
  WARNING 03: negative offset ignored for Link FROM_D3-198_TO_D3-199
  WARNING 03: negative offset ignored for Link FROM_D3-200_TO_D3-145
  WARNING 03: negative offset ignored for Link FROM_D3-202_TO_D3-203
  WARNING 03: negative offset ignored for Link FROM_D3-203_TO_D4-46
  WARNING 03: negative offset ignored for Link FROM_D3-206_TO_D3-205
  WARNING 03: negative offset ignored for Link FROM_D3-207_TO_D3-206
  WARNING 03: negative offset ignored for Link FROM_D3-20_TO_D3-21
  WARNING 03: negative offset ignored for Link FROM_D3-212_TO_D3-211
  WARNING 03: negative offset ignored for Link FROM_D3-213_TO_E3-21
  WARNING 03: negative offset ignored for Link FROM_D3-214_TO_D3-211
  WARNING 03: negative offset ignored for Link FROM_D3-215_TO_D3-214
  WARNING 03: negative offset ignored for Link FROM_D3-216_TO_D3-217
  WARNING 03: negative offset ignored for Link FROM_D3-217_TO_D3-215
  WARNING 03: negative offset ignored for Link FROM_D3-21_TO_D3-23
  WARNING 03: negative offset ignored for Link FROM_D3-220_TO_D3-219
  WARNING 03: negative offset ignored for Link FROM_D3-221_TO_D3-220
  WARNING 03: negative offset ignored for Link FROM_D3-229_TO_D3-228
  WARNING 03: negative offset ignored for Link FROM_D3-22_TO_D3-21
  WARNING 03: negative offset ignored for Link FROM_D3-234_TO_D3-233
  WARNING 03: negative offset ignored for Link FROM_D3-237_TO_D3-235
  WARNING 03: negative offset ignored for Link FROM_D3-23_TO_D3-24
  WARNING 03: negative offset ignored for Link FROM_D3-242_TO_D3-241
  WARNING 03: negative offset ignored for Link FROM_D3-244_TO_D3-233
[...]
  FROM_F5-76_TO_F5-75     1.00   0.00  0.00  0.00  1.00  0.00  0.00  0.00  0.00  0.00
  FROM_F5-77_TO_F5-73     1.00   0.00  0.00  0.00  1.00  0.00  0.00  0.00  0.00  0.00
  FROM_F5-78_TO_F5-77     1.12   0.00  0.00  0.00  1.00  0.00  0.00  0.00  0.00  0.00
  FROM_F5-79_TO_F5-74     1.00   0.00  0.00  0.00  1.00  0.00  0.00  0.00  0.00  0.00
  FROM_F5-7_TO_F5-5       1.00   0.00  0.00  0.00  0.00  0.00  0.00  1.00  0.00  0.00
  FROM_F5-80_TO_F5-79     1.96   0.00  0.00  0.00  0.99  0.01  0.00  0.00  0.00  0.00
  FROM_F5-81_TO_F5-80     1.00   0.00  0.00  0.00  1.00  0.00  0.00  0.00  0.00  0.00
  FROM_F5-82_TO_F5-72     1.21   0.23  0.77  0.00  0.00  0.00  0.00  0.00  0.00  0.00
  FROM_F5-83_TO_F5-82     1.62   1.00  0.00  0.00  0.00  0.00  0.00  0.00  0.00  0.00
  FROM_F5-84_TO_F5-83     2.10   1.00  0.00  0.00  0.00  0.00  0.00  0.00  0.00  0.00
  FROM_F5-85_TO_F5-83     1.00   1.00  0.00  0.00  0.00  0.00  0.00  0.00  0.00  0.00
  FROM_F5-86_TO_F5-34     1.00   0.00  0.00  0.00  0.00  0.00  0.00  1.00  0.00  0.00
  FROM_F5-87_TO_F5-86     1.00   0.00  0.00  0.00  0.00  0.00  0.00  1.00  0.00  0.00
  FROM_F5-88_TO_F5-87     2.22   0.00  0.00  0.00  0.00  0.00  0.00  1.00  0.00  0.00
  FROM_F5-89_TO_F5-88     1.45   0.00  0.00  0.00  0.14  0.00  0.00  0.85  0.14  0.00
  FROM_F5-8_TO_F5-7       1.00   0.00  0.00  0.00  1.00  0.00  0.00  0.00  1.00  0.00
  FROM_F5-90_TO_F5-89    10.77   0.00  0.00  0.00  0.00  0.00  0.00  1.00  0.00  0.00
  FROM_F5-91_TO_F5-90     1.69   0.00  0.00  0.00  0.00  0.00  0.00  1.00  0.00  0.00
  FROM_F5-92_TO_F5-91     1.00   0.00  0.00  0.00  0.00  0.00  0.00  1.00  0.00  0.00
  FROM_F5-93_TO_F5-92     1.00   0.00  0.00  0.00  0.00  0.00  0.00  1.00  0.00  0.00
  FROM_F5-94_TO_F5-93     1.00   0.00  0.00  0.00  0.00  0.00  0.00  1.00  0.00  0.00
  FROM_F5-95_TO_F5-94     1.00   0.00  0.00  0.00  0.00  0.00  0.00  1.00  0.00  0.00
  FROM_F5-96_TO_F5-95     1.00   1.00  0.00  0.00  0.00  0.00  0.00  0.00  0.00  0.00
  FROM_F5-97_TO_F5-96     1.00   1.00  0.00  0.00  0.00  0.00  0.00  0.00  0.00  0.00
  FROM_F5-98_TO_F5-97     1.00   1.00  0.00  0.00  0.00  0.00  0.00  0.00  0.00  0.00
  FROM_F5-99_TO_F5-98     1.00   1.00  0.00  0.00  0.00  0.00  0.00  0.00  0.00  0.00
  FROM_F5-9_TO_F5-8       1.00   0.00  0.00  0.00  1.00  0.00  0.00  0.00  0.00  0.00
  FROM_G5-16_TO_F5-99     1.00   1.00  0.00  0.00  0.00  0.00  0.00  0.00  0.00  0.00
  FROM_G5-17_TO_G5-16     1.00   1.00  0.00  0.00  0.00  0.00  0.00  0.00  0.00  0.00
  FROM_G5-18_TO_G5-17     1.00   1.00  0.00  0.00  0.00  0.00  0.00  0.00  0.00  0.00
  FROM_G5-19_TO_G5-18     1.00   1.00  0.00  0.00  0.00  0.00  0.00  0.00  0.00  0.00
  FROM_G5-1_TO_F5-17      1.00   0.00  0.00  0.00  0.00  0.00  0.00  1.00  0.00  0.00
  FROM_G5-20_TO_G5-19     1.00   1.00  0.00  0.00  0.00  0.00  0.00  0.00  0.00  0.00
  FROM_G5-24_TO_F5-101    1.00   1.00  0.00  0.00  0.00  0.00  0.00  0.00  0.00  0.00
  FROM_G5-25_TO_G5-24     1.00   1.00  0.00  0.00  0.00  0.00  0.00  0.00  0.00  0.00
  FROM_G5-26_TO_G5-25     1.00   1.00  0.00  0.00  0.00  0.00  0.00  0.00  0.00  0.00
  FROM_G5-27_TO_G5-26     1.00   1.00  0.00  0.00  0.00  0.00  0.00  0.00  0.00  0.00
  FROM_G5-2_TO_G5-1       1.00   0.00  0.00  0.00  1.00  0.00  0.00  0.00  1.00  0.00
  FROM_G5-3_TO_G5-2       1.00   0.00  0.00  0.00  0.00  0.00  0.00  1.00  0.00  0.00
  FROM_HKS_FM1_TO_F5-89   33.13   0.00  0.99  0.00  0.00  0.00  0.01  0.00  0.00  0.00
  FROM_IDM_FM1_TO_E6-15    1.00   0.00  0.42  0.00  0.00  0.00  0.58  0.00  0.00  0.00
  FROM_JUB001_TO_E3-263    8.59   0.00  1.00  0.00  0.00  0.00  0.00  0.00  0.00  0.00
  FROM_JUB002_TO_JUB001    2.17   1.00  0.00  0.00  0.00  0.00  0.00  0.00  0.00  0.00
  FROM_JUB003_TO_JUB002    1.00   1.00  0.00  0.00  0.00  0.00  0.00  0.00  0.00  0.00
  FROM_JUB004_TO_JUB003    1.02   1.00  0.00  0.00  0.00  0.00  0.00  0.00  0.00  0.00
  FROM_JUB005_TO_JUB010    1.00   1.00  0.00  0.00  0.00  0.00  0.00  0.00  0.00  0.00
  FROM_JUB006_TO_JUB007    5.92   1.00  0.00  0.00  0.00  0.00  0.00  0.00  0.00  0.00
  FROM_JUB007_TO_JUB012    1.14   1.00  0.00  0.00  0.00  0.00  0.00  0.00  0.00  0.00
  FROM_JUB008_TO_JUB009    1.00   1.00  0.00  0.00  0.00  0.00  0.00  0.00  0.00  0.00
  FROM_JUB009_TO_JUB011    1.00   1.00  0.00  0.00  0.00  0.00  0.00  0.00  0.00  0.00
  FROM_JUB010_TO_JUB006    1.00   1.00  0.00  0.00  0.00  0.00  0.00  0.00  0.00  0.00
  FROM_JUB011_TO_JUB007    1.00   1.00  0.00  0.00  0.00  0.00  0.00  0.00  0.00  0.00
  FROM_JUB012_TO_E3-248    4.66   0.00  1.00  0.00  0.00  0.00  0.00  0.00  0.00  0.00
  FROM_JUB015_TO_E5-48    1.00   0.00  0.00  0.00  0.99  0.01  0.00  0.00  0.00  0.00
  FROM_JUB016_TO_E5-59    1.00   0.00  0.00  0.00  1.00  0.00  0.00  0.00  0.00  0.00
  FROM_JUB017_TO_JUB019    1.00   1.00  0.00  0.00  0.00  0.00  0.00  0.00  0.00  0.00
  FROM_JUB018_TO_JUB030    1.00   1.00  0.00  0.00  0.00  0.00  0.00  0.00  0.00  0.00
  FROM_JUB019_TO_JUB018    1.00   1.00  0.00  0.00  0.00  0.00  0.00  0.00  0.00  0.00
  FROM_JUB020_TO_D3-55    1.00   0.00  0.00  0.00  1.00  0.00  0.00  0.00  1.00  0.00
  FROM_JUB021_TO_JUB022    1.00   0.00  0.00  0.00  1.00  0.00  0.00  0.00  0.00  0.00
  FROM_JUB022_TO_JUB027    1.63   0.00  0.00  0.00  1.00  0.00  0.00  0.00  0.00  0.00
  FROM_JUB023_TO_JUB078    1.32   1.00  0.00  0.00  0.00  0.00  0.00  0.00  0.00  0.00
  FROM_JUB024_TO_D2-9     1.73   0.00  0.00  0.00  0.00  0.00  0.00  1.00  0.00  0.00
  FROM_JUB025_TO_JUB029    2.74   1.00  0.00  0.00  0.00  0.00  0.00  0.00  0.00  0.00
  FROM_JUB026_TO_C2-19    1.00   0.00  0.00  0.00  1.00  0.00  0.00  0.00  0.06  0.00
  FROM_JUB027_TO_JUB034    1.00   0.00  0.00  0.00  1.00  0.00  0.00  0.00  0.00  0.00
  FROM_JUB028_TO_D2-98    1.61   0.00  0.00  0.00  1.00  0.00  0.00  0.00  0.99  0.00
  FROM_JUB029_TO_JUB023    1.29   1.00  0.00  0.00  0.00  0.00  0.00  0.00  0.00  0.00
  FROM_JUB030_TO_JUB083    1.00   1.00  0.00  0.00  0.00  0.00  0.00  0.00  0.00  0.00
  FROM_JUB031_TO_JUB028    1.00   0.00  0.00  0.00  1.00  0.00  0.00  0.00  0.00  0.00
  FROM_JUB032_TO_JUB047    1.38   0.00  1.00  0.00  0.00  0.00  0.00  0.00  0.00  0.00
  FROM_JUB033_TO_JUB086    1.00   0.00  0.00  0.00  0.00  0.00  0.00  1.00  0.00  0.00
  FROM_JUB034_TO_JUB094    1.01   0.00  0.00  0.00  1.00  0.00  0.00  0.00  1.00  0.00
  FROM_JUB035_TO_B3-120    4.52   0.00  0.00  0.00  0.00  0.00  0.00  1.00  0.00  0.00
  FROM_JUB036_TO_JUB035    4.39   0.00  0.00  0.00  1.00  0.00  0.00  0.00  0.00  0.00
  FROM_JUB037_TO_JUB036    1.00   0.00  1.00  0.00  0.00  0.00  0.00  0.00  0.00  0.00
  FROM_JUB038_TO_JUB036    2.85   0.00  0.00  0.00  1.00  0.00  0.00  0.00  0.98  0.00
  FROM_JUB039_TO_JUB038    1.02   0.00  0.00  0.00  1.00  0.00  0.00  0.00  0.00  0.00
  FROM_JUB040_TO_JUB039    1.00   0.00  0.00  0.00  1.00  0.00  0.00  0.00  0.99  0.00
  FROM_JUB041_TO_JUB042    1.00   1.00  0.00  0.00  0.00  0.00  0.00  0.00  0.00  0.00
  FROM_JUB042_TO_JUB039    1.22   0.00  1.00  0.00  0.00  0.00  0.00  0.00  0.00  0.00
  FROM_JUB043_TO_JUB038    1.00   0.00  1.00  0.00  0.00  0.00  0.00  0.00  0.00  0.00
  FROM_JUB044_TO_JUB043    1.00   1.00  0.00  0.00  0.00  0.00  0.00  0.00  0.00  0.00
  FROM_JUB045_TO_E6-22    1.08   0.00  0.00  0.00  1.00  0.00  0.00  0.00  0.00  0.00
  FROM_JUB046_TO_JUB045    3.37   0.00  0.00  0.00  1.00  0.00  0.00  0.00  0.98  0.00
  FROM_JUB047_TO_D2-147    2.53   0.00  0.00  0.00  1.00  0.00  0.00  0.00  0.80  0.00
  FROM_JUB048_TO_JUB047    1.00   0.00  0.00  0.00  1.00  0.00  0.00  0.00  0.00  0.00
  FROM_JUB049_TO_JUB026    1.00   0.00  0.00  0.00  1.00  0.00  0.00  0.00  0.02  0.00
  FROM_JUB050_TO_JUB049    1.00   0.00  0.00  0.00  1.00  0.00  0.00  0.00  0.99  0.00
  FROM_JUB051_TO_JUB090    1.92   0.00  0.00  0.00  1.00  0.00  0.00  0.00  0.00  0.00
  FROM_JUB052_TO_JUB051    1.00   0.00  1.00  0.00  0.00  0.00  0.00  0.00  0.00  0.00
  FROM_JUB053_TO_JUB051    1.00   0.00  1.00  0.00  0.00  0.00  0.00  0.00  0.00  0.00
  FROM_JUB054_TO_JUB053    1.00   1.00  0.00  0.00  0.00  0.00  0.00  0.00  0.00  0.00
  FROM_JUB055_TO_JUB056    1.00   1.00  0.00  0.00  0.00  0.00  0.00  0.00  0.00  0.00
  FROM_JUB056_TO_JUB052    1.00   1.00  0.00  0.00  0.00  0.00  0.00  0.00  0.00  0.00
  FROM_JUB057_TO_JUB060    1.00   0.00  0.00  0.00  1.00  0.00  0.00  0.00  0.00  0.00
  FROM_JUB058_TO_JUB057    1.00   0.00  0.00  0.00  1.00  0.00  0.00  0.00  0.00  0.00
  FROM_JUB059_TO_JUB058    1.26   0.00  1.00  0.00  0.00  0.00  0.00  0.00  0.00  0.00
  FROM_JUB060_TO_JUB061    1.41   0.00  0.00  0.00  1.00  0.00  0.00  0.00  0.00  0.00
  FROM_JUB061_TO_JUB062    1.00   0.00  0.00  0.00  1.00  0.00  0.00  0.00  0.00  0.00
  FROM_JUB062_TO_JUB063    1.00   0.00  0.00  0.00  1.00  0.00  0.00  0.00  0.00  0.00
  FROM_JUB063_TO_JUB091    1.00   0.00  0.00  0.00  0.99  0.00  0.00  0.01  0.00  0.00
  FROM_JUB065_TO_JUB068    1.12   1.00  0.00  0.00  0.00  0.00  0.00  0.00  0.00  0.00
  FROM_JUB068_TO_JUB061    1.00   0.00  1.00  0.00  0.00  0.00  0.00  0.00  0.00  0.00
  FROM_JUB069_TO_C2-88   16.60   0.00  0.00  0.00  1.00  0.00  0.00  0.00  0.00  0.00
  FROM_JUB070_TO_JUB069    1.00   0.00  0.00  0.00  1.00  0.00  0.00  0.00  0.85  0.00
  FROM_JUB071_TO_JUB070    1.00   0.00  0.00  0.00  0.66  0.00  0.00  0.34  0.00  0.00
  FROM_JUB072_TO_C2-118    1.00   0.00  0.00  0.00  0.01  0.00  0.00  0.99  0.00  0.00
  FROM_JUB073_TO_D3-43    1.81   0.00  0.00  0.00  1.00  0.00  0.00  0.00  1.00  0.00
  FROM_JUB074_TO_C2-144    1.00   0.00  0.00  0.00  0.00  0.00  0.00  1.00  0.00  0.00
  FROM_JUB075_TO_JUB085    1.00   0.00  0.00  0.00  0.00  0.00  0.00  1.00  0.00  0.00
  FROM_JUB076_TO_JUB077    1.06   1.00  0.00  0.00  0.00  0.00  0.00  0.00  0.00  0.00
  FROM_JUB077_TO_JUB028    4.65   0.00  1.00  0.00  0.00  0.00  0.00  0.00  0.00  0.00
  FROM_JUB078_TO_JUB076    1.17   1.00  0.00  0.00  0.00  0.00  0.00  0.00  0.00  0.00
  FROM_JUB079_TO_JUB024    1.00   0.00  0.00  0.00  1.00  0.00  0.00  0.00  0.32  0.00
  FROM_JUB080_TO_A2-3     1.00   0.00  0.35  0.00  0.65  0.00  0.00  0.00  0.97  0.00
  FROM_JUB081_TO_C2-144    1.00   0.00  0.00  0.00  0.20  0.05  0.00  0.75  0.01  0.00
  FROM_JUB082_TO_C2-120    1.00   0.00  1.00  0.00  0.00  0.00  0.00  0.00  0.00  0.00
  FROM_JUB083_TO_JUB082    1.00   1.00  0.00  0.00  0.00  0.00  0.00  0.00  0.00  0.00
  FROM_JUB084_TO_JUB087    1.50   0.00  0.00  0.00  0.00  0.00  0.00  1.00  0.00  0.00
  FROM_JUB085_TO_JUB033    1.00   0.00  0.00  0.00  0.63  0.00  0.00  0.37  0.38  0.00
  FROM_JUB086_TO_JUB074    1.92   0.00  0.00  0.00  0.00  0.00  0.00  1.00  0.00  0.00
  FROM_JUB087_TO_JUB086    1.00   0.00  0.00  0.00  0.00  0.00  0.00  1.00  0.00  0.00
  FROM_JUB088_TO_JUB084    1.00   0.00  0.00  0.00  0.00  0.00  0.00  1.00  0.00  0.00
  FROM_JUB089_TO_JUB088    1.33   0.00  0.00  0.00  0.00  0.00  0.00  1.00  0.00  0.00
  FROM_JUB090_TO_JUB050    1.02   0.00  0.00  0.00  1.00  0.00  0.00  0.00  0.00  0.00
  FROM_JUB091_TO_JUB049    1.00   0.00  0.00  0.00  1.00  0.00  0.00  0.00  1.00  0.00
  FROM_JUB092_TO_D3-381    3.92   0.00  0.00  0.00  1.00  0.00  0.00  0.00  0.99  0.00
  FROM_JUB093_TO_D3-57    3.02   0.00  0.00  0.00  0.77  0.00  0.00  0.23  0.00  0.00
  FROM_JUB094_TO_JUB031    1.16   0.00  0.00  0.00  1.00  0.00  0.00  0.00  0.00  0.00
  FROM_JUB098_TO_F5-121    1.41   0.00  0.00  0.00  1.00  0.00  0.00  0.00  0.00  0.00
  FROM_JUB101_TO_C1-51   13.18   0.00  0.00  0.00  0.00  1.00  0.00  0.00  0.00  0.00
  FROM_JUB102_TO_B4-52    1.68   0.00  0.00  0.00  0.62  0.06  0.00  0.32  0.00  0.00
  FROM_JUB104_TO_C6-107    1.00   0.29  0.71  0.00  0.00  0.00  0.00  0.00  0.00  0.00
  FROM_JUB105_TO_C6-107    1.00   0.29  0.71  0.00  0.00  0.00  0.00  0.00  0.00  0.00
  FROM_JUB106_TO_C6-108    1.00   0.18  0.82  0.00  0.00  0.00  0.00  0.00  0.00  0.00
  FROM_JUB107_TO_C6-108    1.00   0.18  0.82  0.00  0.00  0.00  0.00  0.00  0.00  0.00
  FROM_JUB108_TO_C5-175    1.00   0.00  0.00  0.00  0.00  0.00  0.00  1.00  0.00  0.00
  FROM_JUB109_TO_D6-6     1.00   0.00  0.00  0.00  0.00  0.00  0.00  1.00  0.00  0.00
  FROM_JUB110_TO_E6-23    1.00   0.00  0.00  0.00  0.00  0.02  0.00  0.98  0.00  0.00
  FROM_JUB111_TO_E4-63    1.00   0.00  0.00  0.00  0.00  0.00  0.00  1.00  0.00  0.00
  FROM_JUB112_TO_E4-52    1.00   0.00  0.00  0.00  1.00  0.00  0.00  0.00  0.35  0.00
  FROM_JUB113_TO_D3-417    1.04   0.00  0.00  0.00  1.00  0.00  0.00  0.00  0.64  0.00
  FROM_JUB114_TO_JUB093    5.34   0.00  0.00  0.00  0.87  0.00  0.00  0.13  0.29  0.00
  FROM_JUB115_TO_JUB092    1.72   0.00  0.00  0.00  1.00  0.00  0.00  0.00  0.00  0.00
  FROM_JUB116_TO_JUB048    6.92   0.00  1.00  0.00  0.00  0.00  0.00  0.00  0.00  0.00
  FROM_JUB117_TO_JUB118    2.68   0.00  1.00  0.00  0.00  0.00  0.00  0.00  0.00  0.00
  FROM_JUB118_TO_D2-115    1.00   0.00  0.00  0.00  0.05  0.00  0.00  0.95  0.00  0.00
  FROM_JUB119_TO_D2-116    1.00   0.00  0.00  0.00  1.00  0.00  0.00  0.00  0.00  0.00
  FROM_JUB120_TO_JUB119    1.00   0.00  0.00  0.00  0.99  0.00  0.00  0.01  0.00  0.00
  FROM_JUB121_TO_JUB029    7.18   1.00  0.00  0.00  0.00  0.00  0.00  0.00  0.00  0.00
  FROM_JUB122_TO_JUB090    1.00   0.00  1.00  0.00  0.00  0.00  0.00  0.00  0.00  0.00
  FROM_JUB123_TO_JUB059    1.00   1.00  0.00  0.00  0.00  0.00  0.00  0.00  0.00  0.00
  FROM_JUB124_TO_JUB055    1.83   1.00  0.00  0.00  0.00  0.00  0.00  0.00  0.00  0.00
  FROM_JUB125_TO_JUB054    1.05   1.00  0.00  0.00  0.00  0.00  0.00  0.00  0.00  0.00
  FROM_JUB127_TO_C1-28    7.26   0.00  0.00  0.00  0.00  0.00  0.00  1.00  0.00  0.00
  FROM_JUB129_TO_B2-5     1.00   1.00  0.00  0.00  0.00  0.00  0.00  0.00  0.00  0.00
  FROM_JUB130_TO_B2-195    1.84   0.74  0.26  0.00  0.00  0.00  0.00  0.00  0.00  0.00
  FROM_JUB131_TO_C9-21    1.16   0.00  1.00  0.00  0.00  0.00  0.00  0.00  0.00  0.00
  FROM_JUB132_TO_D3-142    2.47   0.00  0.00  0.00  0.00  0.00  0.00  1.00  0.00  0.00
  FROM_JUB133_TO_C9-21    1.00   0.00  0.00  0.00  1.00  0.00  0.00  0.00  0.98  0.00
  FROM_JUB134_TO_C9-21    1.00   0.00  1.00  0.00  0.00  0.00  0.00  0.00  0.00  0.00
  FROM_JUB135_TO_B4-102    1.20   0.00  0.00  0.00  1.00  0.00  0.00  0.00  0.00  0.00
  FROM_JUB136_TO_B3-126    2.05   0.08  0.26  0.00  0.63  0.00  0.00  0.03  0.41  0.00
  FROM_JUB137_TO_B2-69    4.83   0.00  0.00  0.00  0.48  0.52  0.00  0.00  1.00  0.00
  FROM_JUB138_TO_JUB137    1.63   1.00  0.00  0.00  0.00  0.00  0.00  0.00  0.00  0.00
  FROM_JUB139_TO_JUB138    1.00   1.00  0.00  0.00  0.00  0.00  0.00  0.00  0.00  0.00
  FROM_JUB140_TO_JUB139    3.57   1.00  0.00  0.00  0.00  0.00  0.00  0.00  0.00  0.00
  FROM_JUB141_TO_JUB140    2.24   1.00  0.00  0.00  0.00  0.00  0.00  0.00  0.00  0.00
  FROM_JUB142_TO_JUB137    1.00   0.00  0.00  0.00  0.00  0.00  0.00  1.00  0.00  0.00
  FROM_JUB143_TO_JUB142    1.00   0.00  0.00  0.00  0.00  0.00  0.00  1.00  0.00  0.00
  FROM_JUB144_TO_JUB143    1.00   0.00  0.00  0.00  0.00  0.00  0.00  1.00  0.00  0.00
  FROM_JUB145_TO_JUB144    1.00   0.00  1.00  0.00  0.00  0.00  0.00  0.00  0.00  0.00
  FROM_JUB146_TO_JUB143    1.19   1.00  0.00  0.00  0.00  0.00  0.00  0.00  0.00  0.00
  FROM_JUB148_TO_JUB144    1.03   0.00  0.00  0.00  0.00  0.00  0.00  1.00  0.00  0.00
  FROM_JUB149_TO_JUB145    1.84   1.00  0.00  0.00  0.00  0.00  0.00  0.00  0.00  0.00
  FROM_JUB150_TO_JUB146    1.77   1.00  0.00  0.00  0.00  0.00  0.00  0.00  0.00  0.00
  FROM_JUB151_TO_D3-88    1.00   0.00  0.00  0.00  1.00  0.00  0.00  0.00  0.00  0.00
  FROM_JUB152_TO_D2-121    1.00   0.00  0.92  0.00  0.00  0.00  0.08  0.00  0.00  0.00
  FROM_RCT_LS_TO_B3-191    1.00   0.00  0.24  0.00  0.00  0.00  0.76  0.00  0.00  0.00
  
  
  *************************
  Conduit Surcharge Summary
  *************************
  
  ----------------------------------------------------------------------------
                                                           Hours        Hours 
                         --------- Hours Full --------   Above Full   Capacity
  Conduit                Both Ends  Upstream  Dnstream   Normal Flow   Limited
  ----------------------------------------------------------------------------
  CDT-959                     0.01      0.01     48.00      0.01         0.01
  FROM_B3-252_TO_B3-240        5.72      5.72     48.00      1.45         0.01
  FROM_B3-92_TO_B3-91         0.01      0.01      0.01     31.08         0.01
  FROM_B4-123_TO_B4-122       48.00     48.00     48.00      0.01         0.01
  FROM_B4-124_TO_B4-123        0.01      0.01     48.00      0.01         0.01
  FROM_C3-145_TO_C3-146       48.00     48.00     48.00      0.01         0.01
  FROM_C3-146_TO_C3-147        0.01      0.01     48.00      0.01         0.01
  FROM_C3-261_TO_C3-77       48.00     48.00     48.00      0.01         0.01
  FROM_C3-270_TO_C3-145       48.00     48.00     48.00     48.00        28.76
  FROM_C3-77_TO_C3-270       48.00     48.00     48.00     48.00        38.29
  FROM_C3-78_TO_C3-261       32.21     32.21     48.00      0.01         0.01
  FROM_C3-79_TO_C3-78         0.01      0.01     32.21      0.01         0.01
  FROM_C4-323_TO_C4-322       48.00     48.00     48.00     48.00        48.00
  FROM_C4-324_TO_C4-323        0.01      0.01     48.00      0.01         0.01
  FROM_C4-8_TO_C4-101        48.00     48.00     48.00      0.01         0.01
  FROM_C5-4_TO_C5-3          48.00     48.00     48.00      0.01         0.01
  FROM_C5-73_TO_C5-16        48.00     48.00     48.00      0.01         0.01
  FROM_D2-185_TO_D2-184        0.01      0.01      0.01     48.00         0.01
  FROM_D2-190_TO_D2-10        0.01      0.01      0.01      2.73         0.01
  FROM_E6-18_TO_IDM_LS        0.01      0.01     48.00      0.01         0.01
  FROM_HKS_FM1_TO_F5-89        0.01      0.01     48.00      0.01         0.01
  FROM_IDM_FM1_TO_E6-15        0.01      0.01     48.00      0.01         0.01
  FROM_JUB135_TO_B4-102        0.01      0.01     48.00      0.01         0.01
  FROM_JUB152_TO_D2-121       46.98     46.98     48.00      4.00         0.01
  FROM_RCT_LS_TO_B3-191        0.01      0.01     48.00      5.84         0.01
  
  
  ***************
  Pumping Summary
  ***************
  
  ---------------------------------------------------------------------------------------------------------
                                                  Min       Avg       Max     Total     Power    % Time Off
                        Percent   Number of      Flow      Flow      Flow    Volume     Usage    Pump Curve
  Pump                 Utilized   Start-Ups       MGD       MGD       MGD  10^6 gal     Kw-hr    Low   High
  ---------------------------------------------------------------------------------------------------------
  BSO_P1                   3.02          87      0.00      0.29      0.29     0.017      2.78    0.0    0.0
  BSO_P2                   0.00           0      0.00      0.00      0.00     0.000      0.00    0.0    0.0
  CNP_P1                   8.32         123      0.00      0.36      0.36     0.060     13.48    0.0    0.0
  CNP_P2                   0.00           0      0.00      0.00      0.00     0.000      0.00    0.0    0.0
  HKS_P1                   0.57          11      0.00      0.66      0.66     0.008      0.99    0.0    0.0
  HKS_P2                   0.00           0      0.00      0.00      0.00     0.000      0.00    0.0    0.0
  IND_P1                  57.97         151      0.00      0.43      0.43     0.501     75.57    0.0    0.0
  IND_P2                   0.00           0      0.00      0.00      0.00     0.000      0.00    0.0    0.0
  RCK_P1                 100.00           0      0.00      3.98      4.22     7.962   1580.85    0.0    0.0
  RCT_P1                  12.17         171      0.00      0.23      0.23     0.056     13.15    0.0    0.2
  RCT_P2                   0.00           0      0.00      0.00      0.00     0.000      0.00    0.0    0.0
  

  Analysis begun on:  Wed Jun 24 09:48:24 2026
  Analysis ended on:  Wed Jun 24 09:49:16 2026
  Total elapsed time: 00:00:52