
  EPA STORM WATER MANAGEMENT MODEL - VERSION 5.2 (Build 5.2.4)
  ------------------------------------------------------------

  
  ****************
  Analysis Options
  ****************
  Flow Units ............... LPS
  Process Models:
    Rainfall/Runoff ........ NO
    RDII ................... NO
    Snowmelt ............... NO
    Groundwater ............ NO
    Flow Routing ........... YES
    Ponding Allowed ........ YES
    Water Quality .......... NO
  Flow Routing Method ...... DYNWAVE
  Surcharge Method ......... EXTRAN
  Starting Date ............ 01/01/2002 00:00:00
  Ending Date .............. 01/01/2002 04:00:00
  Antecedent Dry Days ...... 0.0
  Report Time Step ......... 00:15:00
  Routing Time Step ........ 60.00 sec
  Variable Time Step ....... YES
  Maximum Trials ........... 8
  Number of Threads ........ 8
  Head Tolerance ........... 0.000100 m
  
  
  **************************        Volume        Volume
  Flow Routing Continuity        hectare-m      10^6 ltr
  **************************     ---------     ---------
  Dry Weather Inflow .......         0.091         0.906
  Wet Weather Inflow .......         0.000         0.000
  Groundwater Inflow .......         0.000         0.000
  RDII Inflow ..............         0.000         0.000
  External Inflow ..........         0.000         0.000
  External Outflow .........         0.075         0.751
  Flooding Loss ............         0.000         0.000
  Evaporation Loss .........         0.000         0.000
  Exfiltration Loss ........         0.000         0.000
  Initial Stored Volume ....         0.000         0.000
  Final Stored Volume ......         0.015         0.152
  Continuity Error (%) .....         0.366
  
  
  *************************
  Highest Continuity Errors
  *************************
  Node B11-11-3 (-29.70%)
  Node B45 (-8.80%)
  Node B34-1 (-8.79%)
  Node B1A-21-9 (-6.36%)
  Node B34-7 (-4.02%)
  
  
  ***************************
  Time-Step Critical Elements
  ***************************
  Link 462 (59.87%)
  Link 443 (8.63%)
  Link 445 (6.96%)
  Link 44C (6.78%)
  Link 44A (3.27%)
  
  
  ********************************
  Highest Flow Instability Indexes
  ********************************
  All links are stable.
  
  
  *********************************
  Most Frequent Nonconverging Nodes
  *********************************
  Node B0 (18.08%)
  Node B14 (12.78%)
  Node B8 (11.58%)
  Node B15 (11.49%)
  Node B13 (11.39%)
  
  
  *************************
  Routing Time Step Summary
  *************************
  Minimum Time Step           :     0.55 sec
  Average Time Step           :     6.64 sec
  Maximum Time Step           :    60.00 sec
  % of Time in Steady State   :     0.00
  Average Iterations per Step :     4.31
  % of Steps Not Converging   :    18.08
  Time Step Frequencies       :
     60.000 -  6.645 sec      :    74.76 %
      6.645 -  0.736 sec      :    24.83 %
      0.736 -  0.082 sec      :     0.42 %
      0.082 -  0.009 sec      :     0.00 %
      0.009 -  0.001 sec      :     0.00 %
  
  
  ******************
  Node Depth Summary
  ******************
  
  ---------------------------------------------------------------------------------
                                 Average  Maximum  Maximum  Time of Max    Reported
                                   Depth    Depth      HGL   Occurrence   Max Depth
  Node                 Type       Meters   Meters   Meters  days hr:min      Meters
  ---------------------------------------------------------------------------------
  B1                   JUNCTION     0.43     0.51     9.57     0  03:59        0.51
  B10                  JUNCTION     1.04     1.32    11.01     0  03:59        1.31
  B11                  JUNCTION     1.12     1.43    11.18     0  03:59        1.42
  B11-1                JUNCTION     0.18     0.29    11.24     0  03:59        0.28
  B11-10               JUNCTION     0.13     0.13    11.95     0  03:04        0.13
  B11-10-1             JUNCTION     0.01     0.01    20.31     0  00:25        0.01
  B11-10-2             JUNCTION     0.01     0.02    21.04     0  00:19        0.02
  B11-10-3             JUNCTION     0.02     0.02    21.32     0  00:39        0.02
  B11-10-4             JUNCTION     0.01     0.01    25.04     0  03:27        0.01
  B11-10-5             JUNCTION     0.01     0.01    25.31     0  01:31        0.01
  B11-11               JUNCTION     0.12     0.13    12.06     0  03:54        0.13
  B11-11-1             JUNCTION     0.02     0.06    18.09     0  00:02        0.02
  B11-11-2             JUNCTION     0.02     0.16    18.46     0  00:01        0.02
  B11-11-3             JUNCTION     0.01     0.01    19.31     0  03:29        0.01
  B11-11-4             JUNCTION     0.01     0.01    25.31     0  03:02        0.01
  B11-11-5             JUNCTION     0.01     0.01    27.31     0  03:53        0.01
  B11-12               JUNCTION     0.12     0.12    12.18     0  03:45        0.12
  B11-12-1             JUNCTION     0.01     0.01    18.05     0  00:29        0.01
  B11-12-2             JUNCTION     0.03     0.03    18.33     0  00:25        0.03
  B11-12-3             JUNCTION     0.02     0.02    19.06     0  00:21        0.02
  B11-12-4             JUNCTION     0.02     0.02    19.32     0  00:16        0.02
  B11-12-5             JUNCTION     0.01     0.01    25.31     0  00:14        0.01
  B11-13               JUNCTION     0.11     0.11    12.35     0  02:10        0.11
  B11-14               JUNCTION     0.10     0.11    12.44     0  02:44        0.11
  B11-15               JUNCTION     0.09     0.10    12.49     0  03:46        0.10
  B11-15-1             JUNCTION     0.07     0.08    12.70     0  02:59        0.08
  B11-15-10            JUNCTION     0.02     0.02    38.05     0  02:40        0.02
  B11-15-11            JUNCTION     0.01     0.01    38.31     0  01:55        0.01
  B11-15-2             JUNCTION     0.07     0.07    12.87     0  03:25        0.07
  B11-15-3             JUNCTION     0.07     0.07    12.97     0  03:42        0.07
  B11-15-3-1           JUNCTION     0.03     0.03    13.07     0  03:38        0.03
  B11-15-3-2           JUNCTION     0.03     0.03    13.33     0  03:57        0.03
  B11-15-3-3           JUNCTION     0.01     0.01    22.79     0  03:24        0.01
  B11-15-3-4           JUNCTION     0.03     0.03    23.07     0  01:44        0.03
  B11-15-3-5           JUNCTION     0.02     0.02    23.32     0  01:09        0.02
  B11-15-3-6           JUNCTION     0.01     0.01    28.31     0  01:24        0.01
  B11-15-4             JUNCTION     0.04     0.05    18.07     0  01:58        0.05
  B11-15-4-1           JUNCTION     0.03     0.03    18.33     0  03:54        0.03
  B11-15-4-2           JUNCTION     0.01     0.01    23.04     0  01:08        0.01
  B11-15-4-3           JUNCTION     0.03     0.03    23.33     0  02:22        0.03
  B11-15-4-4           JUNCTION     0.01     0.01    30.03     0  03:03        0.01
  B11-15-4-5           JUNCTION     0.02     0.02    30.32     0  02:25        0.02
  B11-15-5             JUNCTION     0.05     0.05    18.35     0  03:33        0.05
  B11-15-5-1           JUNCTION     0.02     0.02    24.32     0  03:34        0.02
  B11-15-5-2           JUNCTION     0.01     0.01    30.04     0  03:21        0.01
  B11-15-5-3           JUNCTION     0.03     0.03    30.33     0  01:07        0.03
  B11-15-5-4           JUNCTION     0.02     0.02    31.04     0  03:54        0.02
  B11-15-5-5           JUNCTION     0.02     0.02    31.32     0  03:53        0.02
  B11-15-6             JUNCTION     0.02     0.02    22.32     0  03:50        0.02
  B11-15-6-1           JUNCTION     0.00     0.00    34.30     0  03:02        0.00
  B11-15-7             JUNCTION     0.02     0.02    24.08     0  01:32        0.02
  B11-15-8             JUNCTION     0.03     0.03    24.33     0  03:55        0.03
  B11-15-9             JUNCTION     0.01     0.01    37.80     0  03:54        0.01
  B11-16               JUNCTION     0.05     0.06    21.36     0  03:09        0.06
  B11-17               JUNCTION     0.04     0.04    21.77     0  03:59        0.04
  B11-17-1             JUNCTION     0.02     0.02    22.03     0  03:54        0.02
  B11-17-2             JUNCTION     0.01     0.01    22.31     0  00:43        0.01
  B11-18               JUNCTION     0.05     0.05    22.45     0  03:20        0.05
  B11-19               JUNCTION     0.05     0.05    22.67     0  03:20        0.05
  B11-19-1             JUNCTION     0.03     0.03    26.18     0  03:20        0.03
  B11-19-1-1           JUNCTION     0.01     0.01    26.31     0  00:27        0.01
  B11-19-2             JUNCTION     0.01     0.01    30.08     0  01:19        0.01
  B11-19-3             JUNCTION     0.02     0.03    30.33     0  03:55        0.03
  B11-19-4             JUNCTION     0.02     0.02    30.78     0  03:52        0.02
  B11-19-5             JUNCTION     0.01     0.01    31.02     0  01:39        0.01
  B11-19-6             JUNCTION     0.01     0.01    31.10     0  03:01        0.01
  B11-19-7             JUNCTION     0.01     0.01    31.31     0  00:04        0.01
  B11-2                JUNCTION     0.16     0.23    11.28     0  03:59        0.22
  B11-20               JUNCTION     0.04     0.04    22.95     0  03:17        0.04
  B11-20-1             JUNCTION     0.03     0.03    23.33     0  03:30        0.03
  B11-20-2             JUNCTION     0.01     0.01    28.07     0  03:06        0.01
  B11-20-3             JUNCTION     0.02     0.02    28.32     0  01:01        0.02
  B11-20-4             JUNCTION     0.01     0.01    31.06     0  03:57        0.01
  B11-20-5             JUNCTION     0.01     0.01    31.16     0  02:56        0.01
  B11-20-6             JUNCTION     0.01     0.01    31.31     0  03:17        0.01
  B11-21               JUNCTION     0.03     0.03    23.14     0  03:12        0.03
  B11-22               JUNCTION     0.03     0.03    23.33     0  03:19        0.03
  B11-23               JUNCTION     0.01     0.02    26.32     0  03:58        0.02
  B11-24               JUNCTION     0.02     0.02    27.05     0  01:22        0.02
  B11-25               JUNCTION     0.02     0.02    27.32     0  00:31        0.02
  B11-26               JUNCTION     0.01     0.01    30.16     0  03:57        0.01
  B11-27               JUNCTION     0.02     0.02    30.32     0  03:57        0.02
  B11-28               JUNCTION     0.01     0.01    30.80     0  03:17        0.01
  B11-29               JUNCTION     0.02     0.02    30.96     0  03:52        0.02
  B11-3                JUNCTION     0.15     0.17    11.33     0  03:59        0.17
  B11-30               JUNCTION     0.01     0.01    31.11     0  01:04        0.01
  B11-31               JUNCTION     0.01     0.01    31.31     0  00:33        0.01
  B11-4                JUNCTION     0.14     0.16    11.42     0  03:15        0.16
  B11-5                JUNCTION     0.15     0.16    11.53     0  03:15        0.16
  B11-6                JUNCTION     0.15     0.15    11.63     0  02:04        0.15
  B11-7                JUNCTION     0.15     0.15    11.69     0  03:59        0.15
  B11-8                JUNCTION     0.15     0.15    11.76     0  02:14        0.15
  B11-8-1              JUNCTION     0.04     0.05    16.24     0  03:23        0.05
  B11-8-1-1            JUNCTION     0.01     0.01    20.04     0  00:31        0.01
  B11-8-1-2            JUNCTION     0.02     0.02    20.32     0  00:26        0.02
  B11-8-1-3            JUNCTION     0.01     0.01    21.04     0  00:24        0.01
  B11-8-1-4            JUNCTION     0.01     0.02    21.32     0  00:18        0.02
  B11-8-1-5            JUNCTION     0.00     0.00    30.30     0  02:34        0.00
  B11-8-2              JUNCTION     0.04     0.04    16.52     0  03:12        0.04
  B11-8-2-1            JUNCTION     0.02     0.02    16.78     0  03:05        0.02
  B11-8-2-2            JUNCTION     0.02     0.02    17.05     0  02:03        0.02
  B11-8-2-3            JUNCTION     0.02     0.02    17.32     0  03:53        0.02
  B11-8-2-4            JUNCTION     0.01     0.01    21.31     0  00:12        0.01
  B11-8-2-5            JUNCTION     0.01     0.01    22.31     0  00:07        0.01
  B11-8-3              JUNCTION     0.03     0.03    17.70     0  03:15        0.03
  B11-8-3-1            JUNCTION     0.02     0.02    17.88     0  01:07        0.02
  B11-8-3-2            JUNCTION     0.02     0.02    17.93     0  03:00        0.02
  B11-8-3-3            JUNCTION     0.02     0.02    18.00     0  03:54        0.02
  B11-8-3-4            JUNCTION     0.02     0.02    18.16     0  01:41        0.02
  B11-8-3-5            JUNCTION     0.02     0.02    18.32     0  03:13        0.02
  B11-8-3-6            JUNCTION     0.01     0.01    19.31     0  00:34        0.01
  B11-8-4              JUNCTION     0.02     0.02    18.24     0  03:47        0.02
  B11-8-5              JUNCTION     0.02     0.02    18.51     0  03:55        0.02
  B11-8-6              JUNCTION     0.02     0.02    18.78     0  03:52        0.02
  B11-8-7              JUNCTION     0.02     0.02    19.05     0  03:52        0.02
  B11-8-8              JUNCTION     0.01     0.01    19.31     0  03:10        0.01
  B11-9                JUNCTION     0.13     0.14    11.84     0  01:57        0.14
  B11-9-1              JUNCTION     0.01     0.01    20.31     0  01:20        0.01
  B11-9-2              JUNCTION     0.02     0.02    21.04     0  00:17        0.02
  B11-9-3              JUNCTION     0.02     0.02    21.32     0  03:28        0.02
  B11-9-4              JUNCTION     0.01     0.01    25.04     0  01:37        0.01
  B11-9-5              JUNCTION     0.01     0.01    25.31     0  01:49        0.01
  B12                  JUNCTION     0.97     1.26    11.24     0  03:59        1.25
  B13                  JUNCTION     0.90     1.20    11.29     0  03:59        1.19
  B14                  JUNCTION     0.85     1.15    11.33     0  03:59        1.14
  B15                  JUNCTION     0.81     1.10    11.37     0  03:59        1.09
  B16                  JUNCTION     0.76     1.05    11.41     0  03:59        1.04
  B17                  JUNCTION     0.71     1.00    11.45     0  03:59        0.99
  B18                  JUNCTION     0.66     0.94    11.50     0  03:59        0.93
  B19                  JUNCTION     0.60     0.88    11.54     0  03:59        0.87
  B1A-1                JUNCTION     0.12     0.13    11.29     0  03:12        0.13
  B1A-10               JUNCTION     0.10     0.11    12.44     0  03:00        0.11
  B1A-11               JUNCTION     0.10     0.11    12.60     0  02:59        0.11
  B1A-12               JUNCTION     0.10     0.11    12.76     0  03:00        0.11
  B1A-13               JUNCTION     0.10     0.11    12.92     0  03:07        0.11
  B1A-14               JUNCTION     0.10     0.11    13.08     0  03:30        0.11
  B1A-14-1             JUNCTION     0.07     0.07    17.55     0  02:23        0.07
  B1A-14-10            JUNCTION     0.04     0.04    19.06     0  02:25        0.04
  B1A-14-11            JUNCTION     0.04     0.04    19.34     0  03:19        0.04
  B1A-14-12            JUNCTION     0.03     0.03    20.02     0  03:49        0.03
  B1A-14-13            JUNCTION     0.04     0.04    20.11     0  03:01        0.04
  B1A-14-14            JUNCTION     0.04     0.04    20.23     0  02:52        0.04
  B1A-14-14-1          JUNCTION     0.01     0.01    22.11     0  01:09        0.01
  B1A-14-14-2          JUNCTION     0.01     0.01    22.31     0  03:55        0.01
  B1A-14-15            JUNCTION     0.04     0.04    20.45     0  03:39        0.04
  B1A-14-16            JUNCTION     0.03     0.04    20.68     0  02:26        0.04
  B1A-14-17            JUNCTION     0.03     0.03    20.74     0  03:43        0.03
  B1A-14-17-1          JUNCTION     0.01     0.01    23.31     0  03:06        0.01
  B1A-14-17-2          JUNCTION     0.01     0.01    25.31     0  03:59        0.01
  B1A-14-18            JUNCTION     0.03     0.03    20.89     0  03:54        0.03
  B1A-14-18-1          JUNCTION     0.01     0.01    20.95     0  00:12        0.01
  B1A-14-18-2          JUNCTION     0.01     0.01    21.13     0  00:07        0.01
  B1A-14-18-3          JUNCTION     0.01     0.01    21.31     0  00:03        0.01
  B1A-14-19            JUNCTION     0.03     0.03    23.07     0  03:31        0.03
  B1A-14-19-1          JUNCTION     0.01     0.01    23.12     0  01:37        0.01
  B1A-14-19-2          JUNCTION     0.01     0.01    23.31     0  01:37        0.01
  B1A-14-19-3          JUNCTION     0.00     0.00    26.30     0  00:00        0.00
  B1A-14-2             JUNCTION     0.07     0.07    17.74     0  03:07        0.07
  B1A-14-20            JUNCTION     0.03     0.03    23.33     0  03:23        0.03
  B1A-14-20-1          JUNCTION     0.01     0.01    23.81     0  03:56        0.01
  B1A-14-20-2          JUNCTION     0.01     0.01    24.06     0  03:24        0.01
  B1A-14-20-3          JUNCTION     0.01     0.01    24.31     0  02:57        0.01
  B1A-14-21            JUNCTION     0.02     0.02    24.04     0  03:09        0.02
  B1A-14-21-1          JUNCTION     0.01     0.01    24.31     0  03:22        0.01
  B1A-14-21-2          JUNCTION     0.01     0.01    27.31     0  00:29        0.01
  B1A-14-22            JUNCTION     0.01     0.01    24.25     0  03:44        0.01
  B1A-14-23            JUNCTION     0.01     0.01    24.31     0  00:09        0.01
  B1A-14-24            JUNCTION     0.01     0.01    26.11     0  03:16        0.01
  B1A-14-25            JUNCTION     0.01     0.01    26.31     0  01:00        0.01
  B1A-14-3             JUNCTION     0.07     0.07    17.93     0  03:49        0.07
  B1A-14-4             JUNCTION     0.07     0.07    18.12     0  03:02        0.07
  B1A-14-5             JUNCTION     0.06     0.07    18.31     0  02:04        0.07
  B1A-14-6             JUNCTION     0.06     0.07    18.34     0  03:55        0.07
  B1A-14-6-1           JUNCTION     0.02     0.02    18.59     0  03:49        0.02
  B1A-14-6-2           JUNCTION     0.02     0.02    18.83     0  00:12        0.02
  B1A-14-6-3           JUNCTION     0.01     0.01    19.07     0  03:54        0.01
  B1A-14-6-4           JUNCTION     0.01     0.01    19.31     0  00:04        0.01
  B1A-14-7             JUNCTION     0.06     0.07    18.37     0  03:09        0.07
  B1A-14-8             JUNCTION     0.06     0.07    18.47     0  03:06        0.07
  B1A-14-8-1           JUNCTION     0.04     0.04    19.42     0  00:45        0.04
  B1A-14-8-10          JUNCTION     0.01     0.01    27.15     0  03:18        0.01
  B1A-14-8-11          JUNCTION     0.01     0.01    27.31     0  03:52        0.01
  B1A-14-8-2           JUNCTION     0.04     0.04    19.58     0  00:43        0.04
  B1A-14-8-2-1         JUNCTION     0.03     0.03    19.61     0  03:46        0.03
  B1A-14-8-2-10        JUNCTION     0.01     0.01    24.31     0  03:01        0.01
  B1A-14-8-2-11        JUNCTION     0.01     0.01    25.31     0  00:19        0.01
  B1A-14-8-2-2         JUNCTION     0.03     0.03    19.91     0  03:42        0.03
  B1A-14-8-2-2-1       JUNCTION     0.02     0.02    23.58     0  03:56        0.02
  B1A-14-8-2-2-2       JUNCTION     0.02     0.02    23.82     0  03:56        0.02
  B1A-14-8-2-2-3       JUNCTION     0.01     0.02    24.07     0  03:56        0.02
  B1A-14-8-2-2-4       JUNCTION     0.01     0.01    24.31     0  00:33        0.01
  B1A-14-8-2-3         JUNCTION     0.02     0.02    20.11     0  03:05        0.02
  B1A-14-8-2-4         JUNCTION     0.02     0.02    20.32     0  02:58        0.02
  B1A-14-8-2-5         JUNCTION     0.01     0.01    22.31     0  00:42        0.01
  B1A-14-8-2-6         JUNCTION     0.02     0.02    23.49     0  00:41        0.02
  B1A-14-8-2-7         JUNCTION     0.02     0.02    23.78     0  00:35        0.02
  B1A-14-8-2-8         JUNCTION     0.02     0.02    24.07     0  03:43        0.02
  B1A-14-8-2-9         JUNCTION     0.01     0.01    24.14     0  03:57        0.01
  B1A-14-8-3           JUNCTION     0.03     0.03    25.45     0  00:40        0.03
  B1A-14-8-4           JUNCTION     0.03     0.03    25.69     0  00:34        0.03
  B1A-14-8-5           JUNCTION     0.03     0.03    25.93     0  00:31        0.03
  B1A-14-8-6           JUNCTION     0.02     0.02    26.16     0  00:29        0.02
  B1A-14-8-7           JUNCTION     0.02     0.02    26.47     0  00:24        0.02
  B1A-14-8-8           JUNCTION     0.02     0.02    26.78     0  00:19        0.02
  B1A-14-8-9           JUNCTION     0.02     0.02    27.09     0  00:10        0.02
  B1A-14-9             JUNCTION     0.04     0.04    18.78     0  02:51        0.04
  B1A-15               JUNCTION     0.06     0.07    13.31     0  02:34        0.07
  B1A-16               JUNCTION     0.06     0.06    13.52     0  03:34        0.06
  B1A-17               JUNCTION     0.06     0.06    13.73     0  03:19        0.06
  B1A-18               JUNCTION     0.06     0.06    13.95     0  03:12        0.06
  B1A-19               JUNCTION     0.06     0.06    14.16     0  03:36        0.06
  B1A-2                JUNCTION     0.11     0.13    11.38     0  03:43        0.13
  B1A-20               JUNCTION     0.05     0.06    14.50     0  03:11        0.06
  B1A-21               JUNCTION     0.05     0.06    14.79     0  03:56        0.06
  B1A-21-1             JUNCTION     0.04     0.04    15.09     0  00:21        0.04
  B1A-21-10            JUNCTION     0.01     0.01    22.31     0  00:01        0.01
  B1A-21-11            JUNCTION     0.01     0.01    27.31     0  00:28        0.01
  B1A-21-2             JUNCTION     0.04     0.04    15.34     0  00:16        0.04
  B1A-21-3             JUNCTION     0.03     0.03    15.62     0  00:16        0.03
  B1A-21-4             JUNCTION     0.03     0.04    15.87     0  00:14        0.04
  B1A-21-4-1           JUNCTION     0.02     0.02    16.06     0  03:04        0.02
  B1A-21-4-2           JUNCTION     0.02     0.02    16.32     0  03:00        0.02
  B1A-21-4-3           JUNCTION     0.01     0.01    17.31     0  03:00        0.01
  B1A-21-4-4           JUNCTION     0.01     0.01    19.08     0  02:35        0.01
  B1A-21-4-5           JUNCTION     0.02     0.02    19.32     0  02:40        0.02
  B1A-21-4-6           JUNCTION     0.01     0.01    22.31     0  00:30        0.01
  B1A-21-5             JUNCTION     0.03     0.03    15.91     0  00:09        0.03
  B1A-21-5-1           JUNCTION     0.02     0.02    16.11     0  03:58        0.02
  B1A-21-5-2           JUNCTION     0.02     0.02    16.32     0  00:07        0.02
  B1A-21-5-3           JUNCTION     0.01     0.01    17.31     0  02:40        0.01
  B1A-21-6             JUNCTION     0.02     0.02    17.67     0  00:07        0.02
  B1A-21-7             JUNCTION     0.02     0.03    17.91     0  00:03        0.02
  B1A-21-8             JUNCTION     0.02     0.04    18.11     0  00:01        0.02
  B1A-21-9             JUNCTION     0.02     0.03    18.33     0  00:01        0.02
  B1A-22               JUNCTION     0.04     0.04    14.84     0  03:06        0.04
  B1A-22-1             JUNCTION     0.02     0.02    15.71     0  03:15        0.02
  B1A-22-2             JUNCTION     0.02     0.02    16.01     0  00:25        0.02
  B1A-22-3             JUNCTION     0.02     0.02    16.32     0  03:33        0.02
  B1A-22-4             JUNCTION     0.01     0.01    18.70     0  03:33        0.01
  B1A-22-5             JUNCTION     0.02     0.02    19.01     0  01:41        0.02
  B1A-22-6             JUNCTION     0.01     0.01    19.31     0  03:56        0.01
  B1A-22-7             JUNCTION     0.01     0.01    21.31     0  03:22        0.01
  B1A-23               JUNCTION     0.03     0.04    15.08     0  01:01        0.04
  B1A-24               JUNCTION     0.03     0.04    15.34     0  00:59        0.04
  B1A-25               JUNCTION     0.02     0.02    17.07     0  00:56        0.02
  B1A-26               JUNCTION     0.04     0.04    17.34     0  00:55        0.04
  B1A-27               JUNCTION     0.03     0.03    17.68     0  00:52        0.03
  B1A-27-1             JUNCTION     0.02     0.02    19.03     0  00:34        0.02
  B1A-27-2             JUNCTION     0.02     0.02    19.32     0  00:12        0.02
  B1A-27-3             JUNCTION     0.01     0.01    22.31     0  00:20        0.01
  B1A-27-4             JUNCTION     0.01     0.01    23.31     0  00:15        0.01
  B1A-27-5             JUNCTION     0.01     0.01    24.31     0  00:30        0.01
  B1A-28               JUNCTION     0.03     0.03    17.86     0  03:56        0.03
  B1A-28-1             JUNCTION     0.02     0.02    19.04     0  01:40        0.02
  B1A-28-2             JUNCTION     0.02     0.02    19.32     0  01:23        0.02
  B1A-28-3             JUNCTION     0.01     0.01    22.31     0  03:53        0.01
  B1A-28-4             JUNCTION     0.00     0.00    28.30     0  02:25        0.00
  B1A-29               JUNCTION     0.02     0.02    18.14     0  03:52        0.02
  B1A-3                JUNCTION     0.11     0.12    11.47     0  03:04        0.12
  B1A-30               JUNCTION     0.02     0.02    18.32     0  00:01        0.02
  B1A-31               JUNCTION     0.01     0.01    22.31     0  03:25        0.01
  B1A-32               JUNCTION     0.01     0.01    27.05     0  03:53        0.01
  B1A-33               JUNCTION     0.01     0.01    27.31     0  03:23        0.01
  B1A-4                JUNCTION     0.11     0.12    11.56     0  03:38        0.12
  B1A-5                JUNCTION     0.11     0.12    11.65     0  03:10        0.12
  B1A-6                JUNCTION     0.11     0.12    11.76     0  03:04        0.12
  B1A-7                JUNCTION     0.11     0.12    11.88     0  03:59        0.12
  B1A-8                JUNCTION     0.10     0.12    12.13     0  03:05        0.12
  B1A-9                JUNCTION     0.10     0.11    12.28     0  03:33        0.11
  B1B-1                JUNCTION     0.09     0.10    18.47     0  03:31        0.10
  B1B-10               JUNCTION     0.07     0.07    20.21     0  03:10        0.07
  B1B-11               JUNCTION     0.07     0.07    20.43     0  03:43        0.07
  B1B-12               JUNCTION     0.07     0.07    20.61     0  03:03        0.07
  B1B-13               JUNCTION     0.07     0.07    20.79     0  03:50        0.07
  B1B-14               JUNCTION     0.07     0.07    20.95     0  03:51        0.07
  B1B-14-1             JUNCTION     0.05     0.05    21.17     0  03:57        0.05
  B1B-14-1-1           JUNCTION     0.03     0.03    21.30     0  03:32        0.03
  B1B-14-1-1-1         JUNCTION     0.02     0.02    25.32     0  03:25        0.02
  B1B-14-1-1-2         JUNCTION     0.01     0.01    26.10     0  03:59        0.01
  B1B-14-1-1-3         JUNCTION     0.01     0.01    26.31     0  03:17        0.01
  B1B-14-1-2           JUNCTION     0.02     0.02    21.51     0  02:01        0.02
  B1B-14-1-3           JUNCTION     0.02     0.02    21.66     0  03:05        0.02
  B1B-14-1-3-1         JUNCTION     0.01     0.01    24.10     0  02:24        0.01
  B1B-14-1-3-2         JUNCTION     0.01     0.01    24.31     0  00:04        0.01
  B1B-14-1-4           JUNCTION     0.02     0.02    21.91     0  03:25        0.02
  B1B-14-1-5           JUNCTION     0.02     0.02    22.05     0  03:12        0.02
  B1B-14-1-5-1         JUNCTION     0.01     0.01    22.31     0  03:56        0.01
  B1B-14-1-6           JUNCTION     0.01     0.01    22.12     0  03:13        0.01
  B1B-14-1-7           JUNCTION     0.01     0.01    22.31     0  02:56        0.01
  B1B-14-2             JUNCTION     0.04     0.04    25.07     0  03:17        0.04
  B1B-14-2-1           JUNCTION     0.02     0.02    25.09     0  03:19        0.02
  B1B-14-2-2           JUNCTION     0.02     0.02    25.32     0  03:56        0.02
  B1B-14-2-3           JUNCTION     0.01     0.01    27.08     0  00:13        0.01
  B1B-14-2-4           JUNCTION     0.01     0.01    27.31     0  00:09        0.01
  B1B-14-3             JUNCTION     0.04     0.04    26.34     0  03:16        0.04
  B1B-14-4             JUNCTION     0.03     0.03    27.03     0  03:18        0.03
  B1B-14-4-1           JUNCTION     0.02     0.02    27.32     0  02:35        0.02
  B1B-14-4-2           JUNCTION     0.01     0.01    28.07     0  03:02        0.01
  B1B-14-4-3           JUNCTION     0.01     0.01    28.31     0  01:14        0.01
  B1B-14-5             JUNCTION     0.03     0.03    27.33     0  03:33        0.03
  B1B-14-5-1           JUNCTION     0.01     0.01    28.31     0  03:52        0.01
  B1B-14-5-2           JUNCTION     0.01     0.01    31.07     0  01:49        0.01
  B1B-14-5-3           JUNCTION     0.01     0.01    31.31     0  00:32        0.01
  B1B-14-6             JUNCTION     0.02     0.02    27.89     0  03:19        0.02
  B1B-14-6-1           JUNCTION     0.02     0.02    28.10     0  01:45        0.02
  B1B-14-6-2           JUNCTION     0.01     0.01    28.31     0  03:23        0.01
  B1B-14-6-3           JUNCTION     0.00     0.00    31.30     0  02:58        0.00
  B1B-14-7             JUNCTION     0.01     0.01    30.94     0  02:40        0.01
  B1B-14-8             JUNCTION     0.01     0.01    31.16     0  00:08        0.01
  B1B-14-9             JUNCTION     0.01     0.01    31.31     0  02:59        0.01
  B1B-15               JUNCTION     0.04     0.04    23.48     0  03:21        0.04
  B1B-16               JUNCTION     0.04     0.04    23.69     0  03:54        0.04
  B1B-17               JUNCTION     0.04     0.04    23.86     0  02:56        0.04
  B1B-18               JUNCTION     0.03     0.04    24.04     0  03:31        0.04
  B1B-18-1             JUNCTION     0.03     0.03    27.33     0  03:38        0.03
  B1B-18-2             JUNCTION     0.01     0.01    29.65     0  03:59        0.01
  B1B-18-3             JUNCTION     0.02     0.02    29.94     0  03:07        0.02
  B1B-18-4             JUNCTION     0.01     0.01    30.14     0  03:17        0.01
  B1B-18-5             JUNCTION     0.01     0.01    30.31     0  00:34        0.01
  B1B-19               JUNCTION     0.02     0.03    24.33     0  03:30        0.03
  B1B-2                JUNCTION     0.09     0.09    18.61     0  03:26        0.09
  B1B-2-1              JUNCTION     0.03     0.03    22.09     0  03:21        0.03
  B1B-2-2              JUNCTION     0.03     0.03    22.33     0  02:58        0.03
  B1B-2-3              JUNCTION     0.01     0.01    26.78     0  03:28        0.01
  B1B-2-4              JUNCTION     0.03     0.03    27.04     0  01:37        0.03
  B1B-2-5              JUNCTION     0.02     0.02    27.32     0  03:33        0.02
  B1B-2-6              JUNCTION     0.01     0.01    29.03     0  03:06        0.01
  B1B-2-7              JUNCTION     0.02     0.02    29.32     0  03:27        0.02
  B1B-2-8              JUNCTION     0.01     0.01    30.31     0  03:02        0.01
  B1B-2-9              JUNCTION     0.01     0.01    31.31     0  00:25        0.01
  B1B-20               JUNCTION     0.02     0.02    25.71     0  01:46        0.02
  B1B-21               JUNCTION     0.02     0.02    26.02     0  01:34        0.02
  B1B-22               JUNCTION     0.02     0.02    26.08     0  03:24        0.02
  B1B-23               JUNCTION     0.02     0.02    26.32     0  03:23        0.02
  B1B-24               JUNCTION     0.01     0.01    30.07     0  03:53        0.01
  B1B-25               JUNCTION     0.01     0.01    30.31     0  01:38        0.01
  B1B-3                JUNCTION     0.08     0.09    18.75     0  02:46        0.09
  B1B-4                JUNCTION     0.08     0.09    18.89     0  03:25        0.09
  B1B-5                JUNCTION     0.08     0.09    19.04     0  03:56        0.09
  B1B-5-1              JUNCTION     0.03     0.03    27.33     0  03:17        0.03
  B1B-5-10             JUNCTION     0.01     0.01    29.31     0  00:43        0.01
  B1B-5-2              JUNCTION     0.03     0.03    27.80     0  03:31        0.03
  B1B-5-3              JUNCTION     0.03     0.03    27.92     0  03:25        0.03
  B1B-5-4              JUNCTION     0.03     0.03    27.99     0  03:50        0.03
  B1B-5-4-1            JUNCTION     0.02     0.02    28.91     0  03:59        0.02
  B1B-5-4-2            JUNCTION     0.02     0.02    29.11     0  02:41        0.02
  B1B-5-4-2-1          JUNCTION     0.01     0.01    29.31     0  01:10        0.01
  B1B-5-4-3            JUNCTION     0.01     0.01    29.31     0  02:39        0.01
  B1B-5-4-4            JUNCTION     0.01     0.01    30.31     0  00:18        0.01
  B1B-5-5              JUNCTION     0.02     0.02    28.28     0  02:12        0.02
  B1B-5-6              JUNCTION     0.02     0.02    28.58     0  03:57        0.02
  B1B-5-7              JUNCTION     0.02     0.02    28.88     0  03:52        0.02
  B1B-5-7-1            JUNCTION     0.01     0.01    30.31     0  01:45        0.01
  B1B-5-7-2            JUNCTION     0.01     0.01    31.31     0  00:53        0.01
  B1B-5-8              JUNCTION     0.01     0.01    28.93     0  03:47        0.01
  B1B-5-9              JUNCTION     0.01     0.01    29.12     0  01:03        0.01
  B1B-6                JUNCTION     0.07     0.08    19.30     0  03:59        0.08
  B1B-7                JUNCTION     0.07     0.07    19.53     0  03:27        0.07
  B1B-8                JUNCTION     0.07     0.07    19.75     0  03:00        0.07
  B1B-9                JUNCTION     0.07     0.07    19.98     0  03:47        0.07
  B2                   JUNCTION     0.40     0.49     9.70     0  03:59        0.49
  B20                  JUNCTION     0.55     0.82    11.59     0  03:59        0.81
  B20-1                JUNCTION     0.01     0.01    15.12     0  03:53        0.01
  B20-2                JUNCTION     0.01     0.01    15.31     0  00:13        0.01
  B20-3                JUNCTION     0.01     0.01    16.11     0  00:43        0.01
  B20-4                JUNCTION     0.01     0.01    16.31     0  00:38        0.01
  B20-5                JUNCTION     0.00     0.00    18.30     0  02:56        0.00
  B21                  JUNCTION     0.50     0.77    11.63     0  03:59        0.76
  B22                  JUNCTION     0.47     0.73    11.67     0  03:59        0.71
  B22-1                JUNCTION     0.02     0.02    17.59     0  02:57        0.02
  B22-2                JUNCTION     0.01     0.01    17.83     0  03:55        0.01
  B22-3                JUNCTION     0.01     0.01    18.07     0  03:53        0.01
  B22-4                JUNCTION     0.01     0.01    18.31     0  03:52        0.01
  B23                  JUNCTION     0.46     0.72    11.67     0  03:59        0.70
  B23-1                JUNCTION     0.02     0.02    14.79     0  03:02        0.02
  B23-2                JUNCTION     0.02     0.02    15.06     0  03:52        0.02
  B23-3                JUNCTION     0.02     0.02    15.32     0  03:12        0.02
  B23-4                JUNCTION     0.01     0.02    15.78     0  02:57        0.02
  B23-4-1              JUNCTION     0.01     0.01    16.31     0  01:34        0.01
  B23-4-2              JUNCTION     0.01     0.01    17.31     0  00:02        0.01
  B23-5                JUNCTION     0.01     0.01    15.98     0  02:57        0.01
  B23-6                JUNCTION     0.01     0.01    16.18     0  01:12        0.01
  B23-7                JUNCTION     0.01     0.01    16.31     0  00:04        0.01
  B24                  JUNCTION     0.39     0.64    11.72     0  03:59        0.63
  B24-1                JUNCTION     0.01     0.01    18.31     0  02:20        0.01
  B24-2                JUNCTION     0.01     0.01    20.60     0  02:11        0.01
  B24-3                JUNCTION     0.01     0.01    20.84     0  03:00        0.01
  B24-4                JUNCTION     0.01     0.01    21.08     0  03:53        0.01
  B24-5                JUNCTION     0.01     0.01    21.31     0  00:05        0.01
  B25                  JUNCTION     0.38     0.63    11.73     0  03:59        0.61
  B25-1                JUNCTION     0.02     0.02    15.04     0  03:03        0.02
  B25-2                JUNCTION     0.01     0.01    15.31     0  03:03        0.01
  B25-3                JUNCTION     0.01     0.01    16.31     0  03:54        0.01
  B25-4                JUNCTION     0.01     0.01    18.76     0  03:18        0.01
  B25-5                JUNCTION     0.01     0.01    19.04     0  03:50        0.01
  B25-6                JUNCTION     0.00     0.00    19.30     0  00:00        0.00
  B26                  JUNCTION     0.35     0.59    11.75     0  03:59        0.57
  B26-1                JUNCTION     0.02     0.02    18.32     0  03:05        0.02
  B26-2                JUNCTION     0.01     0.01    20.73     0  03:00        0.01
  B26-3                JUNCTION     0.02     0.02    21.03     0  03:56        0.02
  B26-4                JUNCTION     0.02     0.02    21.32     0  03:55        0.02
  B26-5                JUNCTION     0.01     0.01    21.76     0  03:08        0.01
  B26-6                JUNCTION     0.01     0.01    22.03     0  03:57        0.01
  B26-7                JUNCTION     0.01     0.01    22.31     0  02:57        0.01
  B27                  JUNCTION     0.34     0.58    11.76     0  03:59        0.56
  B27-1                JUNCTION     0.01     0.01    18.04     0  03:51        0.01
  B27-2                JUNCTION     0.01     0.01    18.31     0  03:53        0.01
  B27-3                JUNCTION     0.01     0.01    19.75     0  02:25        0.01
  B27-4                JUNCTION     0.01     0.01    20.03     0  03:14        0.01
  B27-5                JUNCTION     0.01     0.01    20.31     0  01:32        0.01
  B28                  JUNCTION     0.33     0.56    11.77     0  03:59        0.55
  B29                  JUNCTION     0.28     0.50    11.80     0  03:59        0.48
  B29-1                JUNCTION     0.02     0.02    19.07     0  03:57        0.02
  B29-2                JUNCTION     0.02     0.02    19.32     0  02:12        0.02
  B29-3                JUNCTION     0.01     0.01    20.81     0  02:46        0.01
  B29-4                JUNCTION     0.01     0.01    21.06     0  03:18        0.01
  B29-5                JUNCTION     0.01     0.01    21.31     0  03:59        0.01
  B29-6                JUNCTION     0.01     0.01    22.31     0  00:31        0.01
  B3                   JUNCTION     0.48     0.60     9.87     0  03:59        0.59
  B30                  JUNCTION     0.28     0.48    11.81     0  03:59        0.47
  B30-1                JUNCTION     0.02     0.02    17.22     0  01:52        0.02
  B30-2                JUNCTION     0.02     0.02    17.49     0  03:09        0.02
  B30-3                JUNCTION     0.02     0.02    17.76     0  02:25        0.02
  B30-4                JUNCTION     0.02     0.02    18.04     0  03:54        0.02
  B30-5                JUNCTION     0.01     0.01    18.31     0  03:06        0.01
  B30-6                JUNCTION     0.01     0.01    19.31     0  00:24        0.01
  B31                  JUNCTION     0.22     0.40    11.84     0  03:59        0.38
  B31-1                JUNCTION     0.02     0.02    20.10     0  03:19        0.02
  B31-2                JUNCTION     0.02     0.02    20.40     0  02:22        0.02
  B31-3                JUNCTION     0.02     0.02    20.71     0  02:39        0.02
  B31-4                JUNCTION     0.02     0.02    21.01     0  03:01        0.02
  B31-5                JUNCTION     0.01     0.01    21.31     0  01:34        0.01
  B31-6                JUNCTION     0.01     0.01    22.31     0  01:14        0.01
  B32                  JUNCTION     0.21     0.37    11.85     0  03:59        0.35
  B32-1                JUNCTION     0.03     0.03    11.91     0  02:26        0.03
  B32-2                JUNCTION     0.03     0.03    12.11     0  03:23        0.03
  B32-2-1              JUNCTION     0.01     0.01    19.12     0  03:58        0.01
  B32-2-2              JUNCTION     0.01     0.01    19.31     0  00:54        0.01
  B32-3                JUNCTION     0.02     0.02    12.32     0  03:12        0.02
  B32-4                JUNCTION     0.02     0.02    12.42     0  03:00        0.02
  B32-5                JUNCTION     0.02     0.02    12.50     0  03:05        0.02
  B32-5-1              JUNCTION     0.02     0.02    12.68     0  03:02        0.02
  B32-5-2              JUNCTION     0.01     0.01    12.82     0  02:56        0.01
  B32-5-3              JUNCTION     0.01     0.01    13.02     0  01:57        0.01
  B32-5-4              JUNCTION     0.01     0.01    13.22     0  03:54        0.01
  B32-5-5              JUNCTION     0.01     0.01    13.31     0  00:03        0.01
  B32-6                JUNCTION     0.01     0.01    16.75     0  03:56        0.01
  B32-7                JUNCTION     0.01     0.01    17.03     0  02:56        0.01
  B32-8                JUNCTION     0.01     0.01    17.31     0  02:57        0.01
  B33                  JUNCTION     0.12     0.84    20.44     0  00:01        0.12
  B34                  JUNCTION     0.11     1.67    21.40     0  00:01        0.11
  B34-1                JUNCTION     0.06     0.46    22.41     0  00:01        0.06
  B34-10               JUNCTION     0.03     0.03    33.33     0  01:06        0.03
  B34-11               JUNCTION     0.01     0.01    35.15     0  00:07        0.01
  B34-12               JUNCTION     0.02     0.02    35.32     0  00:04        0.02
  B34-2                JUNCTION     0.06     0.12    22.27     0  00:01        0.06
  B34-3                JUNCTION     0.05     0.07    22.37     0  00:02        0.05
  B34-4                JUNCTION     0.03     0.04    24.14     0  00:02        0.03
  B34-4-1              JUNCTION     0.02     0.02    28.32     0  00:09        0.02
  B34-4-2              JUNCTION     0.02     0.02    30.32     0  00:05        0.02
  B34-4-3              JUNCTION     0.01     0.01    36.31     0  00:08        0.01
  B34-5                JUNCTION     0.05     0.08    24.38     0  00:01        0.05
  B34-6                JUNCTION     0.02     0.11    26.41     0  00:01        0.02
  B34-7                JUNCTION     0.02     0.02    29.32     0  00:39        0.02
  B34-8                JUNCTION     0.02     0.02    31.32     0  00:48        0.02
  B34-9                JUNCTION     0.02     0.02    33.16     0  01:42        0.02
  B35                  JUNCTION     0.08     1.67    21.63     0  00:01        0.08
  B36                  JUNCTION     0.08     0.16    20.29     0  00:06        0.08
  B37                  JUNCTION     0.07     0.16    20.47     0  00:05        0.07
  B38                  JUNCTION     0.07     0.17    20.65     0  00:04        0.07
  B39                  JUNCTION     0.07     0.17    20.79     0  00:03        0.07
  B4                   JUNCTION     0.56     0.70    10.03     0  03:59        0.70
  B40                  JUNCTION     0.07     0.18    20.93     0  00:03        0.07
  B41                  JUNCTION     0.07     0.19    21.10     0  00:02        0.06
  B42                  JUNCTION     0.07     0.21    21.28     0  00:01        0.06
  B43                  JUNCTION     0.07     1.02    22.27     0  00:01        0.06
  B44                  JUNCTION     0.04     0.08    23.10     0  00:01        0.04
  B45                  JUNCTION     0.06     1.70    25.00     0  00:01        0.06
  B46                  JUNCTION     0.03     0.03    27.06     0  00:17        0.03
  B47                  JUNCTION     0.05     0.05    27.24     0  00:16        0.05
  B48                  JUNCTION     0.04     0.04    27.34     0  00:15        0.04
  B49                  JUNCTION     0.02     0.02    31.32     0  00:13        0.02
  B5                   JUNCTION     0.64     0.81    10.20     0  03:59        0.80
  B50                  JUNCTION     0.02     0.02    32.16     0  00:12        0.02
  B51                  JUNCTION     0.02     0.02    32.32     0  00:08        0.02
  B52                  JUNCTION     0.01     0.01    36.31     0  00:19        0.01
  B6                   JUNCTION     0.72     0.91    10.36     0  03:59        0.90
  B7                   JUNCTION     0.80     1.01    10.52     0  03:59        1.01
  B8                   JUNCTION     0.88     1.11    10.68     0  03:59        1.11
  B9                   JUNCTION     0.96     1.22    10.85     0  03:59        1.21
  B0                   OUTFALL      0.18     0.20     9.23     0  03:59        0.20
  
  
  *******************
  Node Inflow Summary
  *******************
  
  -------------------------------------------------------------------------------------------------
                                  Maximum  Maximum                  Lateral       Total        Flow
                                  Lateral    Total  Time of Max      Inflow      Inflow     Balance
                                   Inflow   Inflow   Occurrence      Volume      Volume       Error
  Node                 Type           LPS      LPS  days hr:min    10^6 ltr    10^6 ltr     Percent
  -------------------------------------------------------------------------------------------------
  B1                   JUNCTION      0.00    61.96     0  03:59           0       0.752       0.235
  B10                  JUNCTION      0.10    37.69     0  03:59     0.00144        0.47       0.473
  B11                  JUNCTION      0.00    37.61     0  03:59           0       0.476       1.606
  B11-1                JUNCTION      0.09    19.58     0  01:34     0.00129       0.254       1.354
  B11-10               JUNCTION      0.26    15.00     0  03:21     0.00379       0.204       0.733
  B11-10-1             JUNCTION      0.12     0.59     0  00:20     0.00168     0.00835       0.909
  B11-10-2             JUNCTION      0.12     0.48     0  00:19     0.00169     0.00673       0.962
  B11-10-3             JUNCTION      0.12     0.36     0  00:47     0.00169     0.00512       1.431
  B11-10-4             JUNCTION      0.12     0.24     0  01:31     0.00169     0.00345       0.683
  B11-10-5             JUNCTION      0.12     0.12     0  00:00     0.00179     0.00179       1.136
  B11-11               JUNCTION      0.26    14.14     0  01:38     0.00373       0.194       0.734
  B11-11-1             JUNCTION      0.14    16.60     0  00:01     0.00202      0.0105       2.470
  B11-11-2             JUNCTION      0.12    53.93     0  00:01     0.00173     0.00857       1.239
  B11-11-3             JUNCTION      0.12     0.37     0  00:26     0.00173     0.00527     -22.898
  B11-11-4             JUNCTION      0.12     0.75     0  00:01     0.00173     0.00358       1.014
  B11-11-5             JUNCTION      0.13     0.13     0  00:00     0.00186     0.00186      -0.120
  B11-12               JUNCTION      0.18    13.26     0  03:23     0.00264       0.181       0.408
  B11-12-1             JUNCTION      0.00     0.80     0  00:26           0      0.0112       0.707
  B11-12-2             JUNCTION      0.17     0.80     0  00:21     0.00239      0.0114       1.155
  B11-12-3             JUNCTION      0.17     0.64     0  00:18      0.0025     0.00905       0.826
  B11-12-4             JUNCTION      0.24     0.46     0  00:14     0.00342     0.00664       1.416
  B11-12-5             JUNCTION      0.22     0.22     0  00:00     0.00323     0.00323       0.391
  B11-13               JUNCTION      0.12    12.27     0  01:30      0.0018       0.168       0.526
  B11-14               JUNCTION      0.23    12.15     0  01:54     0.00325       0.166       0.319
  B11-15               JUNCTION      0.05    11.92     0  01:51    0.000702       0.163       0.128
  B11-15-1             JUNCTION      0.14     7.24     0  01:27     0.00196         0.1       0.936
  B11-15-10            JUNCTION      0.21     0.44     0  01:26     0.00301     0.00625       1.473
  B11-15-11            JUNCTION      0.23     0.23     0  00:00     0.00327     0.00327       0.913
  B11-15-2             JUNCTION      0.05     7.11     0  01:49    0.000688      0.0987       0.429
  B11-15-3             JUNCTION      0.04     7.06     0  03:13    0.000535      0.0982       0.111
  B11-15-3-1           JUNCTION      0.17     1.74     0  01:49      0.0024      0.0244       0.814
  B11-15-3-2           JUNCTION      0.25     1.57     0  00:59     0.00356      0.0222       1.010
  B11-15-3-3           JUNCTION      0.34     1.32     0  01:24     0.00485      0.0187       0.354
  B11-15-3-4           JUNCTION      0.34     0.99     0  00:53      0.0049      0.0141       1.191
  B11-15-3-5           JUNCTION      0.34     0.64     0  00:17     0.00494     0.00927       1.226
  B11-15-3-6           JUNCTION      0.30     0.30     0  00:00     0.00434     0.00434       0.356
  B11-15-4             JUNCTION      0.15     5.28     0  01:53      0.0022      0.0739       0.631
  B11-15-4-1           JUNCTION      0.40     1.58     0  00:59     0.00578      0.0225       0.869
  B11-15-4-2           JUNCTION      0.30     1.18     0  01:27     0.00436      0.0168       0.426
  B11-15-4-3           JUNCTION      0.30     0.88     0  00:38     0.00438      0.0126       1.267
  B11-15-4-4           JUNCTION      0.31     0.57     0  00:59      0.0044     0.00823       0.514
  B11-15-4-5           JUNCTION      0.27     0.27     0  00:00     0.00387     0.00387       0.938
  B11-15-5             JUNCTION      0.09     3.55     0  01:25     0.00136      0.0501       1.419
  B11-15-5-1           JUNCTION      0.42     1.66     0  00:59     0.00605      0.0235       0.351
  B11-15-5-2           JUNCTION      0.30     1.24     0  02:50     0.00438      0.0175       0.391
  B11-15-5-3           JUNCTION      0.31     0.93     0  00:49     0.00441      0.0133       1.246
  B11-15-5-4           JUNCTION      0.30     0.63     0  00:33     0.00438     0.00899       0.928
  B11-15-5-5           JUNCTION      0.32     0.32     0  00:00     0.00466     0.00466       0.849
  B11-15-6             JUNCTION      0.10     1.80     0  01:27     0.00148      0.0254       0.620
  B11-15-6-1           JUNCTION      0.17     0.17     0  00:00     0.00239     0.00239       0.406
  B11-15-7             JUNCTION      0.59     1.53     0  03:19     0.00849      0.0217       0.427
  B11-15-8             JUNCTION      0.28     0.94     0  01:10       0.004      0.0134       1.355
  B11-15-9             JUNCTION      0.22     0.66     0  03:27     0.00324      0.0094       0.412
  B11-16               JUNCTION      0.11     4.63     0  02:07     0.00156      0.0637       0.528
  B11-17               JUNCTION      0.16     4.52     0  01:31     0.00233      0.0624       0.411
  B11-17-1             JUNCTION      0.24     0.44     0  00:43     0.00347     0.00631       1.468
  B11-17-2             JUNCTION      0.20     0.20     0  00:00     0.00287     0.00287       0.976
  B11-18               JUNCTION      0.17     3.92     0  01:31      0.0025      0.0543       0.849
  B11-19               JUNCTION      0.18     3.75     0  02:18     0.00255      0.0521       0.657
  B11-19-1             JUNCTION      0.15     4.67     0  00:01     0.00215      0.0176       1.612
  B11-19-1-1           JUNCTION      0.15     0.15     0  00:00     0.00214     0.00214       0.677
  B11-19-2             JUNCTION      0.19     0.94     0  01:25     0.00279      0.0133      -0.365
  B11-19-3             JUNCTION      0.23     0.75     0  00:59     0.00325      0.0106       1.121
  B11-19-4             JUNCTION      0.25     0.52     0  00:56     0.00366     0.00744       0.916
  B11-19-5             JUNCTION      0.10     0.27     0  00:50      0.0015     0.00382       1.079
  B11-19-6             JUNCTION      0.05     0.17     0  00:04    0.000768     0.00235       1.134
  B11-19-7             JUNCTION      0.11     0.11     0  00:00      0.0016      0.0016       0.850
  B11-2                JUNCTION      0.07    19.49     0  01:53     0.00102       0.255       0.939
  B11-20               JUNCTION      0.15     2.33     0  02:40      0.0022      0.0325       0.726
  B11-20-1             JUNCTION      0.19     0.91     0  01:04     0.00275       0.013       1.277
  B11-20-2             JUNCTION      0.22     0.72     0  01:27     0.00322      0.0103       0.428
  B11-20-3             JUNCTION      0.21     0.50     0  00:44     0.00308     0.00714       1.254
  B11-20-4             JUNCTION      0.12     0.29     0  02:39     0.00176     0.00409       0.488
  B11-20-5             JUNCTION      0.08     0.16     0  03:10     0.00116     0.00235       1.049
  B11-20-6             JUNCTION      0.08     0.08     0  00:00      0.0012      0.0012       0.709
  B11-21               JUNCTION      0.15     1.26     0  01:05     0.00209      0.0176       0.699
  B11-22               JUNCTION      0.10     1.12     0  00:59     0.00144      0.0156       0.797
  B11-23               JUNCTION      0.14     1.02     0  02:39     0.00205      0.0142       0.469
  B11-24               JUNCTION      0.15     0.88     0  01:34      0.0021      0.0123       0.832
  B11-25               JUNCTION      0.15     0.73     0  00:58     0.00217      0.0103       1.154
  B11-26               JUNCTION      0.13     0.58     0  01:50     0.00192     0.00817       0.457
  B11-27               JUNCTION      0.09     0.45     0  00:59     0.00123      0.0063       0.847
  B11-28               JUNCTION      0.07     0.36     0  01:53     0.00104      0.0051       0.569
  B11-29               JUNCTION      0.07     0.29     0  01:32    0.000972      0.0041       0.912
  B11-3                JUNCTION      0.07    19.42     0  01:48    0.000981       0.256       0.720
  B11-30               JUNCTION      0.08     0.22     0  00:29     0.00118     0.00316       1.095
  B11-31               JUNCTION      0.14     0.14     0  00:00     0.00199     0.00199       0.790
  B11-4                JUNCTION      0.07    19.35     0  01:59    0.000985       0.257       0.637
  B11-5                JUNCTION      0.07    19.29     0  01:53    0.000957       0.257       0.634
  B11-6                JUNCTION      0.14    19.22     0  02:08     0.00197       0.258       0.502
  B11-7                JUNCTION      0.08    19.08     0  02:14     0.00109       0.257       0.382
  B11-8                JUNCTION      0.09    19.01     0  02:39     0.00126       0.257       0.469
  B11-8-1              JUNCTION      0.11     3.03     0  03:36     0.00154      0.0418       0.994
  B11-8-1-1            JUNCTION      0.14     0.74     0  00:27     0.00204      0.0104       0.722
  B11-8-1-2            JUNCTION      0.15     0.60     0  00:24     0.00215     0.00846       1.285
  B11-8-1-3            JUNCTION      0.15     0.45     0  00:20     0.00215     0.00637       0.944
  B11-8-1-4            JUNCTION      0.15     0.30     0  01:26     0.00215     0.00429       1.703
  B11-8-1-5            JUNCTION      0.15     0.15     0  00:00     0.00215     0.00215       0.418
  B11-8-2              JUNCTION      0.13     2.18     0  02:42     0.00186      0.0302       0.867
  B11-8-2-1            JUNCTION      0.12     0.59     0  01:31      0.0017     0.00841       1.241
  B11-8-2-2            JUNCTION      0.12     2.54     0  00:01     0.00169     0.00683       1.744
  B11-8-2-3            JUNCTION      0.12     0.36     0  00:12     0.00169     0.00508      -1.226
  B11-8-2-4            JUNCTION      0.12     0.54     0  00:01     0.00168     0.00342       0.913
  B11-8-2-5            JUNCTION      0.12     0.12     0  00:00     0.00175     0.00175       0.317
  B11-8-3              JUNCTION      0.11     1.46     0  02:24     0.00154      0.0203       1.340
  B11-8-3-1            JUNCTION      0.06     0.62     0  00:52    0.000912     0.00874       0.697
  B11-8-3-2            JUNCTION      0.06     0.56     0  00:52    0.000808     0.00788       0.580
  B11-8-3-3            JUNCTION      0.08     0.50     0  00:57     0.00109     0.00712       0.677
  B11-8-3-4            JUNCTION      0.09     0.43     0  00:55     0.00134     0.00608       0.789
  B11-8-3-5            JUNCTION      0.12     0.33     0  00:18     0.00167     0.00478       1.036
  B11-8-3-6            JUNCTION      0.22     0.22     0  00:00     0.00312     0.00312       0.462
  B11-8-4              JUNCTION      0.11     0.73     0  01:16      0.0016      0.0102       1.743
  B11-8-5              JUNCTION      0.12     0.62     0  01:13     0.00167     0.00874       1.195
  B11-8-6              JUNCTION      0.14     0.50     0  01:06       0.002     0.00716       1.283
  B11-8-7              JUNCTION      0.19     0.37     0  00:41     0.00281     0.00524       1.438
  B11-8-8              JUNCTION      0.17     0.17     0  00:00     0.00245     0.00245       0.958
  B11-9                JUNCTION      0.15    15.89     0  02:27     0.00214       0.216       0.670
  B11-9-1              JUNCTION      0.14     0.74     0  01:15     0.00206      0.0105       0.490
  B11-9-2              JUNCTION      0.15     0.60     0  01:15     0.00216     0.00853       0.903
  B11-9-3              JUNCTION      0.15     0.45     0  00:54     0.00216     0.00645       1.339
  B11-9-4              JUNCTION      0.15     0.30     0  01:27     0.00216     0.00432       0.656
  B11-9-5              JUNCTION      0.15     0.15     0  00:00     0.00219     0.00219       1.075
  B12                  JUNCTION      0.00    27.25     0  00:22           0        0.23       1.741
  B13                  JUNCTION      0.00    27.30     0  00:23           0       0.232       1.108
  B14                  JUNCTION      0.00    27.41     0  00:22           0       0.234       0.989
  B15                  JUNCTION      0.00    27.65     0  00:20           0       0.237       0.957
  B16                  JUNCTION      0.00    27.86     0  00:19           0       0.239       0.926
  B17                  JUNCTION      0.00    28.12     0  00:18           0       0.241       1.027
  B18                  JUNCTION      0.00    28.42     0  00:17           0       0.244       1.103
  B19                  JUNCTION      0.00    28.74     0  00:16           0       0.247       1.093
  B1A-1                JUNCTION      0.00    13.68     0  02:24           0       0.166       1.063
  B1A-10               JUNCTION      0.16    12.65     0  02:26     0.00231       0.162       0.681
  B1A-11               JUNCTION      0.14    12.49     0  02:26     0.00205       0.161       0.680
  B1A-12               JUNCTION      0.10    12.35     0  02:02     0.00144        0.16       0.678
  B1A-13               JUNCTION      0.06    12.25     0  02:03    0.000822       0.159       0.675
  B1A-14               JUNCTION      0.02    12.19     0  03:49    0.000234       0.159       0.330
  B1A-14-1             JUNCTION      0.07     6.62     0  01:57     0.00104       0.087       0.657
  B1A-14-10            JUNCTION      0.04     2.59     0  01:48     0.00064       0.035       0.836
  B1A-14-11            JUNCTION      0.04     2.54     0  01:41    0.000646      0.0346       0.826
  B1A-14-12            JUNCTION      0.02     2.50     0  02:02    0.000342      0.0341       0.454
  B1A-14-13            JUNCTION      0.13     2.47     0  01:45     0.00184      0.0339       0.392
  B1A-14-14            JUNCTION      0.15     2.34     0  01:53     0.00223      0.0323       0.532
  B1A-14-14-1          JUNCTION      0.09     0.17     0  00:38      0.0013     0.00239       1.992
  B1A-14-14-2          JUNCTION      0.08     0.08     0  00:00      0.0011      0.0011       0.889
  B1A-14-15            JUNCTION      0.18     2.02     0  01:43     0.00252      0.0279       0.716
  B1A-14-16            JUNCTION      0.10     1.85     0  01:43     0.00141      0.0255       0.569
  B1A-14-17            JUNCTION      0.04     1.75     0  01:53    0.000628      0.0242       0.448
  B1A-14-17-1          JUNCTION      0.15     0.26     0  00:20     0.00215     0.00367       2.105
  B1A-14-17-2          JUNCTION      0.11     0.11     0  00:00     0.00152     0.00152       0.497
  B1A-14-18            JUNCTION      0.04     1.45     0  02:42     0.00053      0.0201       0.477
  B1A-14-18-1          JUNCTION      0.02     0.30     0  00:08    0.000257     0.00421       0.868
  B1A-14-18-2          JUNCTION      0.05     0.29     0  00:04    0.000738       0.004       1.014
  B1A-14-18-3          JUNCTION      0.23     0.23     0  00:00     0.00328     0.00328       0.626
  B1A-14-19            JUNCTION      0.00     1.12     0  02:40           0      0.0155       0.700
  B1A-14-19-1          JUNCTION      0.05     0.17     0  01:35    0.000674     0.00243       1.007
  B1A-14-19-2          JUNCTION      0.12     0.12     0  00:00     0.00179     0.00179       1.507
  B1A-14-19-3          JUNCTION      0.00     0.00     0  00:00           0           0       0.000 ltr
  B1A-14-2             JUNCTION      0.16     6.55     0  01:57     0.00231      0.0865       0.681
  B1A-14-20            JUNCTION      0.09     0.95     0  03:23     0.00134      0.0133       1.548
  B1A-14-20-1          JUNCTION      0.07     0.23     0  01:23     0.00105     0.00323       1.193
  B1A-14-20-2          JUNCTION      0.07     0.15     0  00:47     0.00104     0.00221       1.651
  B1A-14-20-3          JUNCTION      0.08     0.08     0  00:00     0.00118     0.00118       1.056
  B1A-14-21            JUNCTION      0.11     0.63     0  01:53     0.00157     0.00882       0.913
  B1A-14-21-1          JUNCTION      0.13     0.25     0  00:21     0.00188     0.00359       1.581
  B1A-14-21-2          JUNCTION      0.12     0.12     0  00:00     0.00172     0.00172       0.513
  B1A-14-22            JUNCTION      0.04     0.27     0  00:09    0.000637     0.00377       1.457
  B1A-14-23            JUNCTION      0.02     0.22     0  00:35    0.000274     0.00316       0.998
  B1A-14-24            JUNCTION      0.06     0.20     0  01:31    0.000808      0.0029       0.596
  B1A-14-25            JUNCTION      0.15     0.15     0  00:00     0.00211     0.00211       0.792
  B1A-14-3             JUNCTION      0.16     6.39     0  01:58     0.00234      0.0848       0.686
  B1A-14-4             JUNCTION      0.16     6.23     0  01:52     0.00234       0.083       0.687
  B1A-14-5             JUNCTION      0.13     6.07     0  01:51     0.00192      0.0811       0.500
  B1A-14-6             JUNCTION      0.02     5.93     0  03:06    0.000309      0.0794       0.313
  B1A-14-6-1           JUNCTION      0.04     0.42     0  00:13    0.000636     0.00576       1.874
  B1A-14-6-2           JUNCTION      0.08     0.37     0  01:26     0.00111     0.00519       1.238
  B1A-14-6-3           JUNCTION      0.11     0.29     0  00:04     0.00158     0.00414       1.369
  B1A-14-6-4           JUNCTION      0.18     0.18     0  00:00     0.00258     0.00258       0.854
  B1A-14-7             JUNCTION      0.05     5.50     0  02:52    0.000654      0.0737       0.334
  B1A-14-8             JUNCTION      0.01     5.46     0  03:54    0.000137      0.0732       0.167
  B1A-14-8-1           JUNCTION      0.04     2.82     0  00:43    0.000569      0.0384       0.597
  B1A-14-8-10          JUNCTION      0.07     0.16     0  00:27    0.000999     0.00228       1.011
  B1A-14-8-11          JUNCTION      0.09     0.09     0  00:00     0.00129     0.00129       0.704
  B1A-14-8-2           JUNCTION      0.05     2.78     0  00:42    0.000706      0.0379       0.399
  B1A-14-8-2-1         JUNCTION      0.06     1.47     0  01:25    0.000832      0.0201       0.753
  B1A-14-8-2-10        JUNCTION      0.08     0.16     0  00:19     0.00118     0.00228       1.228
  B1A-14-8-2-11        JUNCTION      0.08     0.08     0  00:00      0.0011      0.0011       0.500
  B1A-14-8-2-2         JUNCTION      0.05     1.41     0  02:40    0.000746      0.0194       0.871
  B1A-14-8-2-2-1       JUNCTION      0.07     0.50     0  01:09     0.00101     0.00708       1.214
  B1A-14-8-2-2-2       JUNCTION      0.12     0.43     0  01:03     0.00176     0.00614       1.218
  B1A-14-8-2-2-3       JUNCTION      0.13     0.31     0  00:33     0.00185     0.00444       1.381
  B1A-14-8-2-2-4       JUNCTION      0.18     0.18     0  00:00     0.00261     0.00261       0.866
  B1A-14-8-2-3         JUNCTION      0.08     0.85     0  01:30     0.00117      0.0118       0.874
  B1A-14-8-2-4         JUNCTION      0.03     0.77     0  00:42    0.000455      0.0108       1.196
  B1A-14-8-2-5         JUNCTION      0.07     0.74     0  00:41     0.00105      0.0104       0.405
  B1A-14-8-2-6         JUNCTION      0.16     0.67     0  00:37     0.00237     0.00939       0.885
  B1A-14-8-2-7         JUNCTION      0.13     0.50     0  01:44     0.00184     0.00713       1.443
  B1A-14-8-2-8         JUNCTION      0.13     0.38     0  00:55     0.00184     0.00535       1.083
  B1A-14-8-2-9         JUNCTION      0.09     0.25     0  00:53     0.00129     0.00354       0.886
  B1A-14-8-3           JUNCTION      0.14     1.26     0  00:34     0.00202      0.0175       1.327
  B1A-14-8-4           JUNCTION      0.14     1.12     0  00:31     0.00203      0.0156       0.897
  B1A-14-8-5           JUNCTION      0.15     0.98     0  00:29     0.00215      0.0137       0.944
  B1A-14-8-6           JUNCTION      0.19     0.83     0  00:24      0.0028      0.0117       1.132
  B1A-14-8-7           JUNCTION      0.28     0.64     0  00:19     0.00401     0.00902       1.353
  B1A-14-8-8           JUNCTION      0.00     0.37     0  00:13           0      0.0051       1.727
  B1A-14-8-9           JUNCTION      0.20     0.36     0  00:44      0.0029     0.00515       1.083
  B1A-14-9             JUNCTION      0.04     2.63     0  01:53    0.000636      0.0353       1.283
  B1A-15               JUNCTION      0.15     5.55     0  01:53     0.00214      0.0731       1.253
  B1A-16               JUNCTION      0.16     5.41     0  02:04     0.00236      0.0716       0.803
  B1A-17               JUNCTION      0.16     5.24     0  01:54     0.00235      0.0698       0.809
  B1A-18               JUNCTION      0.16     5.08     0  01:51     0.00237       0.068       0.813
  B1A-19               JUNCTION      0.17     4.91     0  03:14     0.00238      0.0659       0.403
  B1A-2                JUNCTION      0.06    13.68     0  02:20    0.000873       0.167       0.650
  B1A-20               JUNCTION      0.11     4.75     0  01:46     0.00154      0.0642       1.110
  B1A-21               JUNCTION      0.02     4.64     0  01:57    0.000318       0.063       0.504
  B1A-21-1             JUNCTION      0.05     2.06     0  00:16    0.000754       0.028       0.979
  B1A-21-10            JUNCTION      0.13     1.48     0  00:01     0.00185      0.0045       1.019
  B1A-21-11            JUNCTION      0.18     0.18     0  00:00     0.00263     0.00263      -0.721
  B1A-21-2             JUNCTION      0.12     2.00     0  00:16     0.00167      0.0275       0.771
  B1A-21-3             JUNCTION      0.08     1.89     0  00:14     0.00113       0.026       0.763
  B1A-21-4             JUNCTION      0.01     1.81     0  00:13    0.000178       0.025       0.592
  B1A-21-4-1           JUNCTION      0.04     0.70     0  01:06    0.000535     0.00986       1.130
  B1A-21-4-2           JUNCTION      0.12     0.67     0  01:45     0.00168     0.00943       1.113
  B1A-21-4-3           JUNCTION      0.14     0.55     0  01:36     0.00203     0.00781       0.721
  B1A-21-4-4           JUNCTION      0.12     0.41     0  01:53     0.00175     0.00582       0.580
  B1A-21-4-5           JUNCTION      0.12     0.29     0  00:27     0.00175     0.00412       1.429
  B1A-21-4-6           JUNCTION      0.17     0.17     0  00:00     0.00238     0.00238       0.397
  B1A-21-5             JUNCTION      0.03     1.24     0  00:08    0.000426      0.0152       0.602
  B1A-21-5-1           JUNCTION      0.08     0.48     0  00:07     0.00114     0.00681       1.030
  B1A-21-5-2           JUNCTION      0.13     0.40     0  00:15     0.00185     0.00574       1.090
  B1A-21-5-3           JUNCTION      0.27     0.27     0  00:00      0.0039      0.0039       0.419
  B1A-21-6             JUNCTION      0.10     1.15     0  00:04     0.00143     0.00816       1.775
  B1A-21-7             JUNCTION      0.00     1.63     0  00:01           0      0.0068       1.087
  B1A-21-8             JUNCTION      0.05     9.53     0  00:01    0.000712     0.00696       2.383
  B1A-21-9             JUNCTION      0.10     0.47     0  00:01     0.00142     0.00588      -5.983
  B1A-22               JUNCTION      0.01     2.59     0  02:39    0.000215      0.0351       0.565
  B1A-22-1             JUNCTION      0.06     0.66     0  00:33    0.000827     0.00906       1.861
  B1A-22-2             JUNCTION      0.10     0.60     0  02:39     0.00139     0.00835       1.362
  B1A-22-3             JUNCTION      0.09     0.50     0  01:46     0.00136     0.00706       1.424
  B1A-22-4             JUNCTION      0.09     0.41     0  01:49     0.00135     0.00574       0.787
  B1A-22-5             JUNCTION      0.11     0.31     0  01:29     0.00154     0.00447       1.793
  B1A-22-6             JUNCTION      0.11     0.21     0  00:34     0.00155     0.00298       1.854
  B1A-22-7             JUNCTION      0.10     0.10     0  00:00     0.00144     0.00144       0.669
  B1A-23               JUNCTION      0.04     1.92     0  00:59     0.00055      0.0262       0.825
  B1A-24               JUNCTION      0.07     1.88     0  00:56     0.00103      0.0258       0.785
  B1A-25               JUNCTION      0.06     1.81     0  00:55    0.000886      0.0249       0.443
  B1A-26               JUNCTION      0.04     1.75     0  00:52    0.000542      0.0242       0.903
  B1A-27               JUNCTION      0.01     1.71     0  00:50    0.000181      0.0239       0.617
  B1A-27-1             JUNCTION      0.01     0.40     0  00:13    0.000159     0.00548       1.428
  B1A-27-2             JUNCTION      0.04     0.38     0  00:20    0.000639     0.00539       1.369
  B1A-27-3             JUNCTION      0.08     0.34     0  00:17     0.00108     0.00479       0.687
  B1A-27-4             JUNCTION      0.09     1.43     0  00:01     0.00129     0.00376       1.473
  B1A-27-5             JUNCTION      0.17     0.17     0  00:00     0.00245     0.00245      -0.577
  B1A-28               JUNCTION      0.00     1.31     0  01:27           0      0.0184       0.816
  B1A-28-1             JUNCTION      0.17     0.54     0  01:07     0.00238      0.0076       1.271
  B1A-28-2             JUNCTION      0.18     0.37     0  00:37     0.00256      0.0053       1.420
  B1A-28-3             JUNCTION      0.12     0.19     0  00:24     0.00175     0.00276       0.814
  B1A-28-4             JUNCTION      0.07     0.07     0  00:00     0.00102     0.00102       0.460
  B1A-29               JUNCTION      0.18     0.94     0  00:01      0.0026       0.011       1.047
  B1A-3                JUNCTION      0.08    13.62     0  02:26      0.0012       0.168       0.645
  B1A-30               JUNCTION      0.12     2.91     0  00:01     0.00172     0.00848       0.743
  B1A-31               JUNCTION      0.15     0.47     0  00:38     0.00218     0.00672      -0.582
  B1A-32               JUNCTION      0.16     0.32     0  01:29     0.00229     0.00457       0.588
  B1A-33               JUNCTION      0.16     0.16     0  00:00      0.0023      0.0023       0.990
  B1A-4                JUNCTION      0.11    13.54     0  02:24     0.00157       0.167       0.641
  B1A-5                JUNCTION      0.14    13.43     0  03:01     0.00202       0.167       0.714
  B1A-6                JUNCTION      0.16    13.29     0  02:14     0.00229       0.166       0.785
  B1A-7                JUNCTION      0.16    13.13     0  03:35     0.00229       0.165       0.389
  B1A-8                JUNCTION      0.16    12.97     0  02:40     0.00228       0.164       1.090
  B1A-9                JUNCTION      0.16    12.81     0  02:06     0.00227       0.163       0.682
  B1B-1                JUNCTION      0.09     9.86     0  02:01     0.00131       0.127       1.069
  B1B-10               JUNCTION      0.20     6.51     0  01:44     0.00288      0.0875       0.796
  B1B-11               JUNCTION      0.09     6.31     0  02:00     0.00126      0.0852       0.718
  B1B-12               JUNCTION      0.00     6.22     0  03:55           0      0.0845       0.639
  B1B-13               JUNCTION      0.00     6.22     0  01:49           0       0.085       0.586
  B1B-14               JUNCTION      0.05     6.22     0  02:28    0.000654      0.0852       0.266
  B1B-14-1             JUNCTION      0.07     4.04     0  02:38    0.000955      0.0558       0.660
  B1B-14-1-1           JUNCTION      0.10     1.34     0  03:37     0.00146      0.0187       0.658
  B1B-14-1-1-1         JUNCTION      0.11     0.34     0  03:00      0.0016     0.00487       1.702
  B1B-14-1-1-2         JUNCTION      0.12     0.23     0  00:40     0.00177      0.0033       0.835
  B1B-14-1-1-3         JUNCTION      0.11     0.11     0  00:00     0.00154     0.00154       0.866
  B1B-14-1-2           JUNCTION      0.11     0.89     0  01:52     0.00158      0.0125       0.738
  B1B-14-1-3           JUNCTION      0.12     0.78     0  01:53     0.00176       0.011       0.823
  B1B-14-1-3-1         JUNCTION      0.10     0.21     0  00:04      0.0015     0.00304       1.996
  B1B-14-1-3-2         JUNCTION      0.11     0.11     0  00:00     0.00155     0.00155       0.862
  B1B-14-1-4           JUNCTION      0.11     0.45     0  01:19     0.00165     0.00637       1.002
  B1B-14-1-5           JUNCTION      0.07     0.33     0  01:27     0.00101     0.00475       0.735
  B1B-14-1-5-1         JUNCTION      0.09     0.09     0  00:00     0.00132     0.00132       1.546
  B1B-14-1-6           JUNCTION      0.07     0.17     0  00:36    0.000959     0.00247       1.052
  B1B-14-1-7           JUNCTION      0.11     0.11     0  00:00     0.00152     0.00152       0.796
  B1B-14-2             JUNCTION      0.02     2.63     0  03:46    0.000332      0.0365       0.616
  B1B-14-2-1           JUNCTION      0.05     0.43     0  00:54    0.000764     0.00612       0.891
  B1B-14-2-2           JUNCTION      0.13     0.38     0  00:14     0.00189     0.00542       1.168
  B1B-14-2-3           JUNCTION      0.14     0.25     0  00:10     0.00195     0.00355       0.722
  B1B-14-2-4           JUNCTION      0.11     0.11     0  00:00     0.00162     0.00162       0.983
  B1B-14-3             JUNCTION      0.06     2.18     0  01:29    0.000845      0.0303       0.799
  B1B-14-4             JUNCTION      0.18     2.12     0  03:14      0.0026      0.0296       0.631
  B1B-14-4-1           JUNCTION      0.14     0.41     0  01:15     0.00202     0.00582       1.860
  B1B-14-4-2           JUNCTION      0.14     0.27     0  00:53     0.00204     0.00383       0.968
  B1B-14-4-3           JUNCTION      0.13     0.13     0  00:00     0.00182     0.00182       0.941
  B1B-14-5             JUNCTION      0.24     1.53     0  02:17     0.00345      0.0216       1.429
  B1B-14-5-1           JUNCTION      0.14     0.39     0  00:36     0.00203     0.00558       0.771
  B1B-14-5-2           JUNCTION      0.14     0.25     0  00:34     0.00203     0.00357       0.663
  B1B-14-5-3           JUNCTION      0.11     0.11     0  00:00     0.00156     0.00156       1.057
  B1B-14-6             JUNCTION      0.22     0.90     0  03:08      0.0031      0.0127       0.827
  B1B-14-6-1           JUNCTION      0.13     0.32     0  01:20     0.00182      0.0045       1.201
  B1B-14-6-2           JUNCTION      0.11     0.19     0  00:24     0.00163     0.00272       1.460
  B1B-14-6-3           JUNCTION      0.08     0.08     0  00:00     0.00109     0.00109       0.477
  B1B-14-7             JUNCTION      0.14     0.38     0  00:10     0.00198     0.00528       1.670
  B1B-14-8             JUNCTION      0.12     0.23     0  00:26     0.00173     0.00334       1.135
  B1B-14-9             JUNCTION      0.11     0.11     0  00:00     0.00162     0.00162       0.656
  B1B-15               JUNCTION      0.05     2.14     0  01:33    0.000744      0.0294       0.922
  B1B-16               JUNCTION      0.09     2.09     0  01:33     0.00124      0.0288       0.597
  B1B-17               JUNCTION      0.10     2.01     0  01:27     0.00146      0.0277       0.550
  B1B-18               JUNCTION      0.08     1.90     0  01:45      0.0012      0.0265       0.737
  B1B-18-1             JUNCTION      0.25     0.92     0  01:06     0.00365       0.013       1.725
  B1B-18-2             JUNCTION      0.25     0.66     0  01:27     0.00364     0.00941       0.641
  B1B-18-3             JUNCTION      0.11     0.41     0  00:57     0.00163     0.00584       1.331
  B1B-18-4             JUNCTION      0.15     0.30     0  00:27     0.00211     0.00425       1.081
  B1B-18-5             JUNCTION      0.15     0.15     0  00:00     0.00215     0.00215       0.697
  B1B-19               JUNCTION      0.11     0.90     0  01:01     0.00152      0.0126       1.206
  B1B-2                JUNCTION      0.06     9.77     0  02:38    0.000878       0.126       0.644
  B1B-2-1              JUNCTION      0.08     1.19     0  01:14     0.00115      0.0164       0.930
  B1B-2-2              JUNCTION      0.10     1.11     0  01:12     0.00138      0.0154       0.943
  B1B-2-3              JUNCTION      0.12     1.01     0  01:53     0.00173       0.014       0.393
  B1B-2-4              JUNCTION      0.06     0.89     0  01:07    0.000829      0.0124       1.215
  B1B-2-5              JUNCTION      0.15     0.83     0  01:00      0.0022      0.0118       1.134
  B1B-2-6              JUNCTION      0.15     0.68     0  01:49     0.00223     0.00962       0.704
  B1B-2-7              JUNCTION      0.15     0.53     0  00:45     0.00223     0.00749       1.419
  B1B-2-8              JUNCTION      0.15     0.37     0  00:25     0.00222     0.00532       1.007
  B1B-2-9              JUNCTION      0.22     0.22     0  00:00     0.00312     0.00312       0.639
  B1B-20               JUNCTION      0.12     0.80     0  01:25     0.00174      0.0112       0.749
  B1B-21               JUNCTION      0.03     0.68     0  01:00    0.000441     0.00955       0.976
  B1B-22               JUNCTION      0.11     0.65     0  00:56     0.00165     0.00918       0.779
  B1B-23               JUNCTION      0.20     0.53     0  03:59     0.00284     0.00762       1.155
  B1B-24               JUNCTION      0.21     0.33     0  03:28     0.00302      0.0048       0.566
  B1B-25               JUNCTION      0.13     0.13     0  00:00      0.0018      0.0018       1.017
  B1B-3                JUNCTION      0.06     8.52     0  02:11    0.000849        0.11       0.677
  B1B-4                JUNCTION      0.06     8.46     0  02:09    0.000856        0.11       0.662
  B1B-5                JUNCTION      0.08     8.40     0  03:18     0.00115       0.109       0.327
  B1B-5-1              JUNCTION      0.06     1.48     0  01:45     0.00089      0.0203       1.286
  B1B-5-10             JUNCTION      0.09     0.09     0  00:00     0.00131     0.00131       0.840
  B1B-5-2              JUNCTION      0.04     1.42     0  01:31    0.000574      0.0196       0.521
  B1B-5-3              JUNCTION      0.05     1.38     0  01:27    0.000781      0.0191       0.458
  B1B-5-4              JUNCTION      0.08     1.33     0  01:26     0.00116      0.0184       0.746
  B1B-5-4-1            JUNCTION      0.09     0.47     0  01:22     0.00135     0.00666       1.526
[...]
  3AB                     1.00   0.00  0.00  0.00  1.00  0.00  0.00  0.00  1.00  0.00
  3AC                     1.00   0.00  0.00  0.00  1.00  0.00  0.00  0.00  0.98  0.00
  3AD                     1.51   0.00  0.00  0.00  1.00  0.00  0.00  0.00  1.00  0.00
  3AE                     1.00   0.00  0.00  0.00  1.00  0.00  0.00  0.00  1.00  0.00
  3AF                     1.00   0.00  0.00  0.00  1.00  0.00  0.00  0.00  0.99  0.00
  3B0                     1.00   0.00  0.00  0.00  0.01  0.99  0.00  0.00  0.00  0.00
  3B1                     1.10   0.00  0.00  0.00  0.00  0.00  0.00  1.00  0.00  0.00
  3B2                     1.00   0.00  0.00  0.00  0.00  0.00  0.00  1.00  0.00  0.00
  3B3                     1.00   0.00  0.00  0.00  1.00  0.00  0.00  0.00  0.99  0.00
  3B4                     1.40   0.00  0.00  0.00  1.00  0.00  0.00  0.00  0.00  0.00
  3B5                     1.00   0.00  0.00  0.00  0.98  0.02  0.00  0.00  1.00  0.00
  3B6                     1.00   0.00  0.00  0.00  0.02  0.98  0.00  0.00  0.00  0.00
  3B7                     1.20   0.00  0.00  0.00  0.00  1.00  0.00  0.00  1.00  0.00
  3B8                     1.00   0.00  0.00  0.00  0.00  0.00  0.00  1.00  0.00  0.00
  3B9                     1.00   0.00  0.00  0.00  1.00  0.00  0.00  0.00  0.98  0.00
  3BA                     1.00   0.00  0.00  0.00  1.00  0.00  0.00  0.00  0.98  0.00
  3BB                     1.00   0.00  0.00  0.00  1.00  0.00  0.00  0.00  0.00  0.00
  3BC                     1.06   0.00  0.00  0.00  1.00  0.00  0.00  0.00  1.00  0.00
  3BD                     1.00   0.00  0.00  0.00  0.03  0.97  0.00  0.00  0.00  0.00
  3BE                     1.00   0.00  0.00  0.00  0.00  1.00  0.00  0.00  1.00  0.00
  3BF                     1.00   0.00  0.00  0.00  1.00  0.00  0.00  0.00  0.00  0.00
  3C0                     1.00   0.00  0.00  0.00  0.00  1.00  0.00  0.00  0.01  0.00
  3C1                     1.00   0.00  0.00  0.00  0.00  1.00  0.00  0.00  0.99  0.00
  3C2                     1.00   0.00  0.00  0.00  1.00  0.00  0.00  0.00  1.00  0.00
  3C3                     1.00   0.00  0.00  0.00  1.00  0.00  0.00  0.00  0.99  0.00
  3C4                     1.00   0.00  0.00  0.00  1.00  0.00  0.00  0.00  1.00  0.00
  3C5                     1.00   0.00  0.00  0.00  0.99  0.01  0.00  0.00  0.94  0.00
  3C6                     1.00   0.00  0.00  0.00  0.00  0.00  0.00  1.00  0.00  0.00
  3C7                     1.00   0.00  0.00  0.00  0.00  1.00  0.00  0.00  0.98  0.00
  3C8                     1.00   0.00  0.00  0.00  0.00  0.00  0.00  1.00  0.00  0.00
  3C9                     1.55   0.00  0.00  0.00  1.00  0.00  0.00  0.00  0.99  0.00
  3CA                     1.00   0.00  0.00  0.00  1.00  0.00  0.00  0.00  0.94  0.00
  3CB                     1.00   0.00  0.00  0.00  0.00  0.00  0.00  1.00  0.00  0.00
  3CC                     1.00   0.00  0.00  0.00  1.00  0.00  0.00  0.00  0.97  0.00
  3CD                     1.00   0.00  0.00  0.00  1.00  0.00  0.00  0.00  0.95  0.00
  3CE                     1.00   0.00  0.00  0.00  1.00  0.00  0.00  0.00  0.94  0.00
  3CF                     1.00   0.00  0.00  0.00  1.00  0.00  0.00  0.00  0.96  0.00
  3D0                     1.00   0.00  0.00  0.00  1.00  0.00  0.00  0.00  0.01  0.00
  3D1                     1.00   0.00  0.00  0.00  1.00  0.00  0.00  0.00  0.04  0.00
  3D2                     1.00   0.00  0.00  0.00  1.00  0.00  0.00  0.00  0.86  0.00
  3D3                     1.00   0.00  0.00  0.00  1.00  0.00  0.00  0.00  0.86  0.00
  3D4                     1.00   0.00  0.00  0.00  1.00  0.00  0.00  0.00  0.86  0.00
  3D5                     1.00   0.00  0.00  0.00  1.00  0.00  0.00  0.00  0.70  0.00
  3D6                     1.00   0.00  0.00  0.00  1.00  0.00  0.00  0.00  0.55  0.00
  3D7                     1.00   0.00  0.00  0.00  0.67  0.00  0.00  0.33  0.07  0.00
  3D8                     1.13   0.00  0.00  0.00  0.99  0.01  0.00  0.00  1.00  0.00
  3D9                     1.00   0.00  0.00  0.00  1.00  0.00  0.00  0.00  0.00  0.00
  3DA                     1.00   0.00  0.00  0.00  0.00  1.00  0.00  0.00  0.98  0.00
  3DB                     1.00   0.00  0.00  0.00  0.98  0.02  0.00  0.00  0.93  0.00
  3DC                     1.00   0.01  0.00  0.00  0.00  0.00  0.00  0.99  0.00  0.00
  3DD                     1.00   0.00  0.00  0.00  1.00  0.00  0.00  0.00  0.98  0.00
  3DE                     1.00   0.00  0.00  0.00  1.00  0.00  0.00  0.00  0.99  0.00
  3DF                     1.00   0.00  0.00  0.00  1.00  0.00  0.00  0.00  0.96  0.00
  3E0                     2.01   0.00  0.00  0.00  0.00  0.00  0.00  1.00  0.00  0.00
  3E1                     1.00   0.00  0.00  0.00  0.98  0.02  0.00  0.00  0.99  0.00
  3E2                     1.00   0.00  0.00  0.00  0.00  0.00  0.00  1.00  0.00  0.00
  3E3                     1.00   0.00  0.00  0.00  1.00  0.00  0.00  0.00  0.97  0.00
  3E4                     1.00   0.00  0.00  0.00  1.00  0.00  0.00  0.00  1.00  0.00
  3E5                     1.00   0.00  0.00  0.00  1.00  0.00  0.00  0.00  1.00  0.00
  3E6                     1.00   0.00  0.00  0.00  1.00  0.00  0.00  0.00  1.00  0.00
  3E7                     1.00   0.00  0.00  0.00  1.00  0.00  0.00  0.00  0.97  0.00
  3E8                     1.00   0.00  0.00  0.00  1.00  0.00  0.00  0.00  0.94  0.00
  3E9                     1.00   0.00  0.00  0.00  0.00  0.00  0.00  1.00  0.00  0.00
  3EA                     1.00   0.00  0.00  0.00  1.00  0.00  0.00  0.00  0.98  0.00
  3EB                     1.00   0.00  0.00  0.00  1.00  0.00  0.00  0.00  0.97  0.00
  3EC                     1.00   0.00  0.00  0.00  0.04  0.96  0.00  0.00  0.00  0.00
  3ED                     1.00   0.00  0.00  0.00  0.00  1.00  0.00  0.00  0.99  0.00
  3EE                     2.56   0.00  0.00  0.00  0.00  0.00  0.00  1.00  0.00  0.00
  3EF                     1.00   0.00  1.00  0.00  0.00  0.00  0.00  0.00  0.00  0.00
  3F0                     1.00   0.00  0.00  0.00  1.00  0.00  0.00  0.00  0.00  0.00
  3F1                     1.00   0.00  0.00  0.00  0.00  1.00  0.00  0.00  0.99  0.00
  3F2                     1.00   0.00  0.00  0.00  0.97  0.03  0.00  0.00  1.00  0.00
  3F3                     1.00   0.00  0.00  0.00  1.00  0.00  0.00  0.00  0.94  0.00
  3F4                     1.00   0.00  0.00  0.00  0.00  0.00  0.00  1.00  0.00  0.00
  3F5                     1.00   0.00  0.00  0.00  1.00  0.00  0.00  0.00  0.98  0.00
  3F6                     1.00   0.00  0.00  0.00  1.00  0.00  0.00  0.00  0.96  0.00
  3F7                     1.00   0.00  0.00  0.00  1.00  0.00  0.00  0.00  0.97  0.00
  3F8                     1.00   0.00  0.00  0.00  1.00  0.00  0.00  0.00  0.95  0.00
  3F9                     1.00   0.00  0.00  0.00  0.03  0.97  0.00  0.00  0.00  0.00
  3FA                     1.00   0.00  0.00  0.00  0.00  1.00  0.00  0.00  0.99  0.00
  3FB                     2.37   0.00  0.00  0.00  0.00  0.00  0.00  1.00  0.00  0.00
  3FC                     1.00   0.00  0.00  0.00  1.00  0.00  0.00  0.00  0.99  0.00
  3FD                     1.00   0.00  0.00  0.00  1.00  0.00  0.00  0.00  0.00  0.00
  3FE                     1.00   0.00  0.00  0.00  0.97  0.03  0.00  0.00  1.00  0.00
  3FF                     1.00   0.00  0.00  0.00  1.00  0.00  0.00  0.00  0.95  0.00
  400                     1.00   0.00  0.00  0.00  0.00  0.00  0.00  1.00  0.00  0.00
  401                     1.00   0.00  0.00  0.00  0.99  0.01  0.00  0.00  0.99  0.00
  402                     1.00   0.00  0.00  0.00  1.00  0.00  0.00  0.00  0.98  0.00
  403                     1.00   0.00  0.00  0.00  1.00  0.00  0.00  0.00  0.00  0.00
  404                     1.00   0.00  0.00  0.00  0.00  1.00  0.00  0.00  1.00  0.00
  405                     1.00   0.00  0.00  0.00  1.00  0.00  0.00  0.00  0.95  0.00
  406                     1.97   0.00  0.00  0.00  0.00  0.00  0.00  1.00  0.00  0.00
  407                     1.00   0.00  0.00  0.00  0.98  0.02  0.00  0.00  0.99  0.00
  408                     1.00   0.00  0.00  0.00  1.00  0.00  0.00  0.00  0.97  0.00
  409                     1.00   0.00  0.00  0.00  1.00  0.00  0.00  0.00  0.95  0.00
  40A                     1.00   0.00  0.00  0.00  1.00  0.00  0.00  0.00  0.99  0.00
  40B                     1.00   0.00  0.00  0.00  1.00  0.00  0.00  0.00  0.94  0.00
  40C                     1.00   0.00  0.00  0.00  0.00  0.00  0.00  1.00  0.00  0.00
  40D                     1.00   0.00  0.00  0.00  0.99  0.01  0.00  0.00  0.99  0.00
  40E                     1.00   0.00  0.00  0.00  1.00  0.00  0.00  0.00  0.98  0.00
  40F                     1.00   0.00  0.00  0.00  1.00  0.00  0.00  0.00  1.00  0.00
  410                     1.00   0.00  0.00  0.00  1.00  0.00  0.00  0.00  1.00  0.00
  411                     1.00   0.00  0.00  0.00  1.00  0.00  0.00  0.00  0.95  0.00
  412                     1.78   0.00  0.00  0.00  0.00  0.00  0.00  1.00  0.00  0.00
  413                     1.00   0.00  0.00  0.00  1.00  0.00  0.00  0.00  0.98  0.00
  414                     1.00   0.00  0.00  0.00  0.00  0.00  0.00  1.00  0.00  0.00
  415                     1.38   0.00  0.00  0.00  1.00  0.00  0.00  0.00  0.98  0.00
  416                     1.00   0.00  0.00  0.00  1.00  0.00  0.00  0.00  0.98  0.00
  417                     1.00   0.00  0.00  0.00  1.00  0.00  0.00  0.00  0.97  0.00
  418                     1.00   0.00  0.00  0.00  1.00  0.00  0.00  0.00  0.96  0.00
  419                     1.00   0.00  0.00  0.00  1.00  0.00  0.00  0.00  1.00  0.00
  41A                     1.00   0.00  0.00  0.00  1.00  0.00  0.00  0.00  0.98  0.00
  41B                     1.00   0.00  0.00  0.00  1.00  0.00  0.00  0.00  0.96  0.00
  41C                     1.00   0.00  0.00  0.00  0.00  0.00  0.00  1.00  0.00  0.00
  41D                     1.59   0.00  0.00  0.00  1.00  0.00  0.00  0.00  0.95  0.00
  41E                     1.22   0.00  0.00  0.00  1.00  0.00  0.00  0.00  0.97  0.00
  41F                     1.00   0.00  0.00  0.00  1.00  0.00  0.00  0.00  1.00  0.00
  420                     1.00   0.00  0.00  0.00  1.00  0.00  0.00  0.00  0.93  0.00
  421                     1.00   0.00  0.00  0.00  0.41  0.00  0.00  0.59  0.41  0.00
  422                     1.00   0.00  0.00  0.00  0.99  0.01  0.00  0.00  0.99  0.00
  423                     1.00   0.00  0.00  0.00  1.00  0.00  0.00  0.00  0.99  0.00
  424                     1.00   0.00  0.00  0.00  1.00  0.00  0.00  0.00  0.98  0.00
  425                     1.00   0.00  0.00  0.00  0.99  0.01  0.00  0.00  0.98  0.00
  426                     1.00   0.00  0.00  0.00  0.99  0.01  0.00  0.00  0.99  0.00
  427                     1.00   0.00  0.00  0.00  1.00  0.00  0.00  0.00  0.98  0.00
  428                     1.00   0.00  0.00  0.00  0.99  0.01  0.00  0.00  0.98  0.00
  429                     1.00   0.00  0.00  0.00  0.02  0.00  0.00  0.98  0.01  0.00
  42A                     1.00   0.00  0.00  0.00  0.00  1.00  0.00  0.00  0.00  0.00
  42B                     1.00   0.00  0.00  0.00  0.00  1.00  0.00  0.00  0.99  0.00
  42C                     1.00   0.00  0.00  0.00  0.00  0.00  0.00  1.00  0.00  0.00
  42D                     1.00   0.00  0.00  0.00  0.02  0.98  0.00  0.00  1.00  0.00
  42E                     1.00   0.00  0.00  0.00  0.01  0.99  0.00  0.00  0.00  0.00
  42F                     1.15   0.00  0.00  0.00  1.00  0.00  0.00  0.00  0.99  0.00
  430                     1.00   0.00  0.00  0.00  0.00  1.00  0.00  0.00  1.00  0.00
  431                     1.00   0.00  0.00  0.00  0.00  1.00  0.00  0.00  0.01  0.00
  432                     1.00   0.00  0.00  0.00  1.00  0.00  0.00  0.00  0.00  0.00
  433                     1.98   0.00  0.00  0.00  0.98  0.02  0.00  0.00  1.00  0.00
  435                     1.00   0.00  0.00  0.00  0.00  1.00  0.00  0.00  0.00  0.00
  436                     1.52   0.00  0.00  0.00  0.98  0.02  0.00  0.00  1.00  0.00
  437                     1.00   0.00  0.00  0.00  0.01  0.99  0.00  0.00  0.00  0.00
  438                     1.00   0.00  0.00  0.00  0.00  1.00  0.00  0.00  1.00  0.00
  439                     1.54   0.00  0.00  0.00  0.00  1.00  0.00  0.00  0.00  0.00
  43A                     2.63   0.00  0.00  0.00  0.01  0.99  0.00  0.00  1.00  0.00
  43B                     1.55   0.00  0.00  0.00  0.01  0.99  0.00  0.00  1.00  0.00
  43C                     1.00   0.00  0.00  0.00  0.00  1.00  0.00  0.00  0.00  0.00
  43D                     1.61   0.00  0.00  0.00  0.00  1.00  0.00  0.00  1.00  0.00
  43E                     1.00   0.00  0.00  0.00  1.00  0.00  0.00  0.00  0.99  0.00
  43F                     1.00   0.00  0.00  0.00  0.01  0.00  0.00  0.99  0.00  0.00
  440                     1.00   0.00  0.00  0.00  0.00  0.00  0.00  1.00  0.00  0.00
  441                     1.00   0.00  0.00  0.00  0.99  0.01  0.00  0.00  0.98  0.00
  442                     1.00   0.00  0.00  0.00  0.00  0.00  0.00  1.00  0.00  0.00
  443                     1.00   0.00  0.00  0.00  1.00  0.00  0.00  0.00  0.00  0.00
  444                     1.00   0.00  0.00  0.00  1.00  0.00  0.00  0.00  0.37  0.00
  445                     2.33   0.00  0.00  0.00  1.00  0.00  0.00  0.00  0.00  0.00
  446                     1.00   0.00  0.00  0.00  1.00  0.00  0.00  0.00  0.26  0.00
  447                     1.79   0.00  0.00  0.00  1.00  0.00  0.00  0.00  0.00  0.00
  448                     2.94   0.00  0.00  0.00  1.00  0.00  0.00  0.00  0.00  0.00
  449                     1.00   0.00  0.00  0.00  0.99  0.01  0.00  0.00  0.02  0.00
  44A                     1.98   0.00  0.00  0.00  0.99  0.01  0.00  0.00  0.02  0.00
  44B                     1.00   0.00  0.00  0.00  1.00  0.00  0.00  0.00  0.17  0.00
  44C                     2.22   0.00  0.00  0.00  1.00  0.00  0.00  0.00  0.02  0.00
  44D                     1.00   0.00  0.00  0.00  1.00  0.00  0.00  0.00  0.01  0.00
  44E                     1.00   0.00  0.00  0.00  1.00  0.00  0.00  0.00  0.08  0.00
  44F                     1.00   0.00  0.00  0.00  1.00  0.00  0.00  0.00  0.05  0.00
  450                     1.00   0.00  0.00  0.00  1.00  0.00  0.00  0.00  0.04  0.00
  451                     1.00   0.00  0.00  0.00  1.00  0.00  0.00  0.00  0.02  0.00
  452                     1.00   0.04  0.00  0.00  0.96  0.00  0.00  0.00  0.01  0.00
  453                     1.00   0.04  0.00  0.00  0.96  0.00  0.00  0.00  0.00  0.00
  454                     1.00   0.05  0.00  0.00  0.95  0.00  0.00  0.00  0.00  0.00
  455                     1.00   0.05  0.00  0.00  0.95  0.00  0.00  0.00  0.00  0.00
  456                     1.00   0.06  0.00  0.00  0.94  0.00  0.00  0.00  0.00  0.00
  457                     1.00   0.06  0.00  0.00  0.91  0.00  0.00  0.03  0.00  0.00
  458                     1.00   0.00  0.00  0.00  1.00  0.00  0.00  0.00  0.07  0.00
  459                     1.00   0.00  0.00  0.00  1.00  0.00  0.00  0.00  0.07  0.00
  45A                     1.00   0.00  0.00  0.00  1.00  0.00  0.00  0.00  0.06  0.00
  45B                     1.00   0.00  0.00  0.00  1.00  0.00  0.00  0.00  0.08  0.00
  45C                     1.00   0.00  0.00  0.00  1.00  0.00  0.00  0.00  0.03  0.00
  45D                     1.00   0.00  0.00  0.00  1.00  0.00  0.00  0.00  0.09  0.00
  45E                     1.00   0.00  0.00  0.00  1.00  0.00  0.00  0.00  0.09  0.00
  45F                     1.00   0.00  0.00  0.00  1.00  0.00  0.00  0.00  0.10  0.00
  460                     1.00   0.00  0.00  0.00  1.00  0.00  0.00  0.00  0.09  0.00
  461                     1.00   0.00  0.00  0.00  0.87  0.00  0.00  0.13  0.00  0.00
  462                     1.00   0.00  0.00  0.00  1.00  0.00  0.00  0.00  0.00  0.00
  
  
  *************************
  Conduit Surcharge Summary
  *************************
  
  ----------------------------------------------------------------------------
                                                           Hours        Hours 
                         --------- Hours Full --------   Above Full   Capacity
  Conduit                Both Ends  Upstream  Dnstream   Normal Flow   Limited
  ----------------------------------------------------------------------------
  11                          0.01      0.02      0.01      0.02         0.01
  13                          0.01      0.01      0.02      0.02         0.01
  15                          0.01      0.03      0.01      0.03         0.01
  3D6                         0.01      0.01      0.76      0.01         0.01
  3D7                         0.76      0.76      1.51      0.01         0.01
  422                         0.01      0.01      0.01      0.01         0.01
  428                         0.01      0.01      0.01      0.01         0.01
  429                         0.01      0.01      0.02      0.01         0.01
  42D                         0.01      0.01      0.02      0.01         0.01
  43E                         0.01      0.01      0.01      0.02         0.01
  43F                         0.01      0.01      0.02      0.02         0.01
  440                         0.01      0.02      0.01      0.02         0.01
  441                         0.02      0.04      0.02      0.05         0.02
  442                         0.01      0.02      0.01      0.06         0.01
  443                         1.38      1.41      1.63      0.14         0.05
  444                         1.58      1.63      2.10      0.15         0.01
  445                         2.10      2.10      2.17      0.14         0.01
  446                         2.17      2.17      2.47      0.14         0.01
  447                         2.47      2.47      2.54      0.13         0.01
  448                         2.54      2.54      2.58      0.14         0.01
  449                         2.58      2.58      2.74      0.13         0.01
  44A                         2.74      2.74      2.78      0.12         0.01
  44B                         2.78      2.78      3.00      0.12         0.01
  44C                         3.00      3.00      3.02      0.12         0.01
  44D                         3.02      3.02      3.08      0.12         0.01
  44E                         3.08      3.08      3.17      0.12         0.01
  44F                         3.17      3.17      3.24      0.12         0.01
  450                         3.24      3.24      3.30      0.11         0.01
  451                         3.30      3.30      3.36      0.10         0.01
  452                         3.36      3.36      3.40      0.08         0.01
  453                         3.40      3.40      3.45      0.07         0.01
  454                         3.45      3.45      3.49      0.05         0.01
  455                         3.49      3.49      3.52      0.02         0.01
  456                         3.52      3.52      3.55      0.01         0.01
  457                         3.55      3.55      3.58      0.01         0.01
  458                         3.59      3.61      3.59      3.64         3.59
  459                         3.57      3.59      3.57      3.63         3.57
  45A                         3.55      3.57      3.55      3.61         3.55
  45B                         3.53      3.55      3.53      3.60         3.53
  45C                         3.52      3.53      3.52      3.58         3.52
  45D                         3.50      3.52      3.50      3.56         3.50
  45E                         3.48      3.50      3.48      3.55         3.48
  45F                         3.46      3.48      3.46      3.52         3.46
  460                         3.40      3.46      3.40      3.51         3.40
  461                         3.35      3.40      3.35      3.49         3.35
  462                         0.01      3.47      0.01      3.50         0.01
  

  Analysis begun on:  Wed Jun 24 10:31:59 2026
  Analysis ended on:  Wed Jun 24 10:32:00 2026
  Total elapsed time: 00:00:01