
  EPA STORM WATER MANAGEMENT MODEL - VERSION 5.2 (Build 5.2.4)
  ------------------------------------------------------------

  
  ERROR 209: undefined object -1 at line 12 of [SUBCATCHMENT] section:
  01N0001_1 -1 01N0001 1.700000 50.000000 76.200000 100.000000 0.000000

  
  ERROR 209: undefined object -1 at line 14 of [SUBCATCHMENT] section:
  01N0003_1 -1 01N0003 6.190000 40.000000 137.200000 50.000000 0.000000

  
  ERROR 209: undefined object -1 at line 16 of [SUBCATCHMENT] section:
  01N0005_1 -1 01N0005 1.460000 40.000000 76.200000 30.000000 0.000000

  
  ERROR 209: undefined object -1 at line 18 of [SUBCATCHMENT] section:
  01N0007_1 -1 01N0007 5.630000 35.000000 106.700000 70.000000 0.000000

  
  ERROR 209: undefined object -1 at line 20 of [SUBCATCHMENT] section:
  01N0008_1 -1 01N0008 2.840000 35.000000 106.700000 50.000000 0.000000

  
  ERROR 209: undefined object -1 at line 22 of [SUBCATCHMENT] section:
  01N0009_1 -1 01N0009 1.780000 35.000000 91.400000 50.000000 0.000000

  
  ERROR 209: undefined object -1 at line 24 of [SUBCATCHMENT] section:
  01N0010_1 -1 01N0010 4.130000 30.000000 152.400000 50.000000 0.000000

  
  ERROR 209: undefined object -1 at line 26 of [SUBCATCHMENT] section:
  01N0011_1 -1 01N0011 2.830000 25.000000 91.400000 50.000000 0.000000

  
  ERROR 209: undefined object -1 at line 28 of [SUBCATCHMENT] section:
  01N0015_1 -1 01N0015 3.670000 35.000000 152.400000 50.000000 0.000000

  
  ERROR 209: undefined object -1 at line 30 of [SUBCATCHMENT] section:
  01N0017_1 -1 01N0017 0.690000 40.000000 91.400000 30.000000 0.000000

  
  ERROR 209: undefined object -1 at line 32 of [SUBCATCHMENT] section:
  01N0018_1 -1 01N0018 2.390000 30.000000 152.400000 100.000000 0.000000

  
  ERROR 209: undefined object -1 at line 34 of [SUBCATCHMENT] section:
  01N0019_1 -1 01N0019 3.050000 35.000000 106.700000 60.000000 0.000000

  
  ERROR 209: undefined object -1 at line 36 of [SUBCATCHMENT] section:
  01N0021_1 -1 01N0021 0.530000 35.000000 91.400000 30.000000 0.000000

  
  ERROR 209: undefined object -1 at line 38 of [SUBCATCHMENT] section:
  01N0022_1 -1 01N0022 2.100000 30.000000 106.700000 100.000000 0.000000

  
  ERROR 209: undefined object -1 at line 40 of [SUBCATCHMENT] section:
  01N0024_1 -1 01N0024 2.390000 35.000000 91.400000 60.000000 0.000000

  
  ERROR 209: undefined object -1 at line 42 of [SUBCATCHMENT] section:
  01N0027_1 -1 01N0027 0.490000 45.000000 76.200000 100.000000 0.000000

  
  ERROR 209: undefined object -1 at line 44 of [SUBCATCHMENT] section:
  01N0028_1 -1 01N0028 2.230000 35.000000 91.400000 200.000000 0.000000

  
  ERROR 209: undefined object -1 at line 46 of [SUBCATCHMENT] section:
  01N0033_1 -1 01N0033 2.910000 35.000000 121.900000 30.000000 0.000000

  
  ERROR 209: undefined object -1 at line 48 of [SUBCATCHMENT] section:
  01N0034_1 -1 01N0034 4.780000 30.000000 182.900000 200.000000 0.000000

  
  ERROR 209: undefined object -1 at line 50 of [SUBCATCHMENT] section:
  01N0035_1 -1 01N0035 0.970000 40.000000 152.400000 30.000000 0.000000

  
  ERROR 209: undefined object -1 at line 52 of [SUBCATCHMENT] section:
  01N0036_1 -1 01N0036 3.560000 35.000000 136.700000 60.000000 0.000000

  
  ERROR 209: undefined object -1 at line 54 of [SUBCATCHMENT] section:
  01N0037_1 -1 01N0037 7.610000 35.000000 136.700000 60.000000 0.000000

  
  ERROR 209: undefined object -1 at line 56 of [SUBCATCHMENT] section:
  01N0039_1 -1 01N0039 5.670000 35.000000 152.400000 60.000000 0.000000

  
  ERROR 209: undefined object -1 at line 58 of [SUBCATCHMENT] section:
  01N0040_1 -1 01N0040 1.170000 35.000000 106.700000 60.000000 0.000000

  
  ERROR 209: undefined object -1 at line 60 of [SUBCATCHMENT] section:
  01N0042_1 -1 01N0042 6.560000 40.000000 198.100000 20.000000 0.000000

  
  ERROR 209: undefined object -1 at line 62 of [SUBCATCHMENT] section:
  01N0043_1 -1 01N0043 1.900000 30.000000 91.400000 30.000000 0.000000

  
  ERROR 209: undefined object -1 at line 64 of [SUBCATCHMENT] section:
  01N0044_1 -1 01N0044 2.670000 30.000000 137.200000 60.000000 0.000000

  
  ERROR 209: undefined object -1 at line 66 of [SUBCATCHMENT] section:
  01N0045_1 -1 01N0045 5.670000 30.000000 213.400000 20.000000 0.000000

  
  ERROR 209: undefined object -1 at line 68 of [SUBCATCHMENT] section:
  01N0049_1 -1 01N0049 9.790000 40.000000 182.900000 30.000000 0.000000

  
  ERROR 209: undefined object -1 at line 70 of [SUBCATCHMENT] section:
  01N0050_1 -1 01N0050 9.670000 35.000000 259.100000 80.000000 0.000000

  
  ERROR 209: undefined object -1 at line 72 of [SUBCATCHMENT] section:
  01N0051_1 -1 01N0051 0.360000 50.000000 61.000000 60.000000 0.000000

  
  ERROR 209: undefined object -1 at line 74 of [SUBCATCHMENT] section:
  01N0068_1 -1 01N0068 6.390000 25.000000 182.900000 10.000000 0.000000

  
  ERROR 209: undefined object -1 at line 76 of [SUBCATCHMENT] section:
  01N008A_1 -1 01N008A 2.840000 35.000000 106.700000 50.000000 0.000000

  
  ERROR 209: undefined object -1 at line 78 of [SUBCATCHMENT] section:
  01N0092_1 -1 01N0092 2.230000 35.000000 106.700000 80.000000 0.000000

  
  ERROR 209: undefined object -1 at line 80 of [SUBCATCHMENT] section:
  01N0093_1 -1 01N0093 0.650000 45.000000 76.200000 10.000000 0.000000

  
  ERROR 209: undefined object -1 at line 82 of [SUBCATCHMENT] section:
  01N0094_1 -1 01N0094 3.800000 28.000000 106.700000 20.000000 0.000000

  
  ERROR 209: undefined object -1 at line 84 of [SUBCATCHMENT] section:
  01N0096_1 -1 01N0096 0.490000 55.000000 61.000000 10.000000 0.000000

  
  ERROR 209: undefined object -1 at line 86 of [SUBCATCHMENT] section:
  01N0097_1 -1 01N0097 3.720000 28.000000 91.400000 80.000000 0.000000

  
  ERROR 209: undefined object -1 at line 88 of [SUBCATCHMENT] section:
  01N0098_1 -1 01N0098 3.070000 35.000000 136.700000 60.000000 0.000000

  
  ERROR 209: undefined object -1 at line 90 of [SUBCATCHMENT] section:
  01N0099_1 -1 01N0099 5.910000 35.000000 152.400000 80.000000 0.000000

  
  ERROR 209: undefined object -1 at line 92 of [SUBCATCHMENT] section:
  01N0101_1 -1 01N0101 2.750000 35.000000 106.700000 30.000000 0.000000

  
  ERROR 209: undefined object -1 at line 94 of [SUBCATCHMENT] section:
  01N0102_1 -1 01N0102 4.170000 35.000000 121.900000 10.000000 0.000000

  
  ERROR 209: undefined object -1 at line 96 of [SUBCATCHMENT] section:
  01N0103_1 -1 01N0103 3.200000 40.000000 106.700000 70.000000 0.000000

  
  ERROR 209: undefined object -1 at line 98 of [SUBCATCHMENT] section:
  01N0104_1 -1 01N0104 0.810000 50.000000 106.700000 10.000000 0.000000

  
  ERROR 209: undefined object -1 at line 100 of [SUBCATCHMENT] section:
  01N0105_1 -1 01N0105 0.530000 55.000000 61.000000 10.000000 0.000000

  
  ERROR 209: undefined object -1 at line 102 of [SUBCATCHMENT] section:
  01N0106_1 -1 01N0106 0.690000 45.000000 76.200000 10.000000 0.000000

  
  ERROR 209: undefined object -1 at line 104 of [SUBCATCHMENT] section:
  01N010A_1 -1 01N010A 4.130000 30.000000 152.400000 50.000000 0.000000

  
  ERROR 209: undefined object -1 at line 106 of [SUBCATCHMENT] section:
  01N0110_1 -1 01N0110 0.730000 45.000000 76.200000 10.000000 0.000000

  
  ERROR 209: undefined object -1 at line 108 of [SUBCATCHMENT] section:
  01N0111_1 -1 01N0111 6.230000 25.000000 106.700000 120.000000 0.000000

  
  ERROR 209: undefined object -1 at line 110 of [SUBCATCHMENT] section:
  01N0112_1 -1 01N0112 0.400000 45.000000 61.000000 10.000000 0.000000

  
  ERROR 209: undefined object -1 at line 112 of [SUBCATCHMENT] section:
  01N0113_1 -1 01N0113 6.480000 25.000000 106.700000 110.000000 0.000000

  
  ERROR 209: undefined object -1 at line 114 of [SUBCATCHMENT] section:
  01N0114_1 -1 01N0114 3.440000 35.000000 91.400000 30.000000 0.000000

  
  ERROR 209: undefined object -1 at line 116 of [SUBCATCHMENT] section:
  01N0115_1 -1 01N0115 1.700000 35.000000 106.700000 130.000000 0.000000

  
  ERROR 209: undefined object -1 at line 118 of [SUBCATCHMENT] section:
  01N0116_1 -1 01N0116 0.400000 45.000000 61.000000 10.000000 0.000000

  
  ERROR 209: undefined object -1 at line 120 of [SUBCATCHMENT] section:
  01N0117_1 -1 01N0117 5.300000 35.000000 106.700000 30.000000 0.000000

  
  ERROR 209: undefined object -1 at line 122 of [SUBCATCHMENT] section:
  01N0118_1 -1 01N0118 7.000000 25.000000 112.800000 130.000000 0.000000

  
  ERROR 209: undefined object -1 at line 124 of [SUBCATCHMENT] section:
  01N0119_1 -1 01N0119 0.450000 45.000000 73.200000 10.000000 0.000000

  
  ERROR 209: undefined object -1 at line 126 of [SUBCATCHMENT] section:
  01N0120_1 -1 01N0120 5.140000 35.000000 106.700000 70.000000 0.000000

  
  ERROR 209: undefined object -1 at line 128 of [SUBCATCHMENT] section:
  01N0121_1 -1 01N0121 6.110000 25.000000 103.600000 140.000000 0.000000

  
  ERROR 209: undefined object -1 at line 130 of [SUBCATCHMENT] section:
  01N0122_1 -1 01N0122 1.500000 45.000000 121.900000 10.000000 0.000000

  
  ERROR 209: undefined object -1 at line 132 of [SUBCATCHMENT] section:
  01N0123_1 -1 01N0123 7.410000 35.000000 152.400000 60.000000 0.000000

  
  ERROR 209: undefined object -1 at line 134 of [SUBCATCHMENT] section:
  01N0124_1 -1 01N0124 9.510000 25.000000 152.400000 130.000000 0.000000

  
  ERROR 209: undefined object -1 at line 136 of [SUBCATCHMENT] section:
  01N0126_1 -1 01N0126 0.530000 45.000000 73.200000 10.000000 0.000000

  
  ERROR 209: undefined object -1 at line 138 of [SUBCATCHMENT] section:
  01N0127_1 -1 01N0127 6.720000 35.000000 146.300000 60.000000 0.000000

  
  ERROR 209: undefined object -1 at line 140 of [SUBCATCHMENT] section:
  01N0128_1 -1 01N0128 10.600000 25.000000 161.500000 110.000000 0.000000

  
  ERROR 209: undefined object -1 at line 142 of [SUBCATCHMENT] section:
  01N0129_1 -1 01N0129 0.690000 45.000000 76.200000 10.000000 0.000000

  
  ERROR 209: undefined object -1 at line 144 of [SUBCATCHMENT] section:
  01N0130_1 -1 01N0130 8.010000 45.000000 106.700000 60.000000 0.000000

  
  ERROR 209: undefined object -1 at line 146 of [SUBCATCHMENT] section:
  01N0131_1 -1 01N0131 3.720000 30.000000 97.500000 160.000000 0.000000

  
  ERROR 209: undefined object -1 at line 148 of [SUBCATCHMENT] section:
  01N0132_1 -1 01N0132 0.730000 40.000000 91.400000 10.000000 0.000000

  
  ERROR 209: undefined object -1 at line 150 of [SUBCATCHMENT] section:
  01N0133_1 -1 01N0133 3.120000 35.000000 91.400000 120.000000 0.000000

  
  ERROR 209: undefined object -1 at line 152 of [SUBCATCHMENT] section:
  01N0139_1 -1 01N0139 2.020000 35.000000 140.200000 50.000000 0.000000

  
  ERROR 209: undefined object -1 at line 154 of [SUBCATCHMENT] section:
  01N0150_1 -1 01N0150 3.440000 40.000000 137.200000 170.000000 0.000000

  
  ERROR 209: undefined object -1 at line 156 of [SUBCATCHMENT] section:
  01N0151_1 -1 01N0151 2.190000 35.000000 76.200000 10.000000 0.000000

  
  ERROR 209: undefined object -1 at line 158 of [SUBCATCHMENT] section:
  01N0152_1 -1 01N0152 4.170000 25.000000 106.700000 200.000000 0.000000

  
  ERROR 209: undefined object -1 at line 160 of [SUBCATCHMENT] section:
  01N0153_1 -1 01N0153 4.010000 25.000000 91.400000 250.000000 0.000000

  
  ERROR 209: undefined object -1 at line 162 of [SUBCATCHMENT] section:
  01N0154_1 -1 01N0154 3.160000 30.000000 182.900000 20.000000 0.000000

  
  ERROR 209: undefined object -1 at line 164 of [SUBCATCHMENT] section:
  01N0155_1 -1 01N0155 0.730000 70.000000 76.200000 10.000000 0.000000

  
  ERROR 209: undefined object -1 at line 166 of [SUBCATCHMENT] section:
  01N015A_1 -1 01N015A 3.670000 35.000000 152.400000 50.000000 0.000000

  
  ERROR 209: undefined object -1 at line 168 of [SUBCATCHMENT] section:
  01N0174_1 -1 01N0174 5.280000 35.000000 521.500000 30.000000 0.000000

  
  ERROR 209: undefined object -1 at line 170 of [SUBCATCHMENT] section:
  01N0177_1 -1 01N0177 0.530000 40.000000 70.100000 10.000000 0.000000

  
  ERROR 209: undefined object -1 at line 172 of [SUBCATCHMENT] section:
  01N0178_1 -1 01N0178 3.280000 35.000000 103.600000 90.000000 0.000000

  
  ERROR 209: undefined object -1 at line 174 of [SUBCATCHMENT] section:
  01N0182_1 -1 01N0182 0.610000 40.000000 76.200000 10.000000 0.000000

  
  ERROR 209: undefined object -1 at line 176 of [SUBCATCHMENT] section:
  01N0183_1 -1 01N0183 3.120000 35.000000 100.600000 150.000000 0.000000

  
  ERROR 209: undefined object -1 at line 178 of [SUBCATCHMENT] section:
  01N0184_1 -1 01N0184 1.340000 35.000000 103.600000 60.000000 0.000000

  
  ERROR 209: undefined object -1 at line 180 of [SUBCATCHMENT] section:
  01N0188_1 -1 01N0188 0.810000 40.000000 85.300000 10.000000 0.000000

  
  ERROR 209: undefined object -1 at line 182 of [SUBCATCHMENT] section:
  01N0189_1 -1 01N0189 3.280000 35.000000 97.500000 100.000000 0.000000

  
  ERROR 209: undefined object -1 at line 184 of [SUBCATCHMENT] section:
  01N0190_1 -1 01N0190 0.610000 35.000000 82.300000 80.000000 0.000000

  
  ERROR 209: undefined object -1 at line 186 of [SUBCATCHMENT] section:
  01N0191_1 -1 01N0191 1.780000 35.000000 91.400000 120.000000 0.000000

  
  ERROR 209: undefined object -1 at line 188 of [SUBCATCHMENT] section:
  01N0192_1 -1 01N0192 0.530000 35.000000 61.000000 40.000000 0.000000

  
  ERROR 209: undefined object -1 at line 190 of [SUBCATCHMENT] section:
  01N0193_1 -1 01N0193 1.940000 35.000000 91.400000 50.000000 0.000000

  
  ERROR 209: undefined object -1 at line 192 of [SUBCATCHMENT] section:
  01N0194_1 -1 01N0194 1.460000 35.000000 91.400000 50.000000 0.000000

  
  ERROR 209: undefined object -1 at line 194 of [SUBCATCHMENT] section:
  01N0195_1 -1 01N0195 0.530000 35.000000 70.100000 40.000000 0.000000

  
  ERROR 209: undefined object -1 at line 196 of [SUBCATCHMENT] section:
  01N0196_1 -1 01N0196 2.020000 35.000000 106.700000 40.000000 0.000000

  
  ERROR 209: undefined object -1 at line 198 of [SUBCATCHMENT] section:
  01N0197_1 -1 01N0197 1.500000 35.000000 106.700000 50.000000 0.000000

  
  ERROR 209: undefined object -1 at line 200 of [SUBCATCHMENT] section:
  01N0198_1 -1 01N0198 0.650000 35.000000 76.200000 30.000000 0.000000

  
  ERROR 209: undefined object -1 at line 202 of [SUBCATCHMENT] section:
  01N0199_1 -1 01N0199 1.700000 35.000000 76.200000 70.000000 0.000000

  
  ERROR 209: undefined object -1 at line 204 of [SUBCATCHMENT] section:
  01N019A_1 -1 01N019A 3.050000 35.000000 106.700000 60.000000 0.000000

  
  ERROR 209: undefined object -1 at line 206 of [SUBCATCHMENT] section:
  01N0200_1 -1 01N0200 1.380000 35.000000 91.400000 60.000000 0.000000

  
  ERROR 209: undefined object -1 at line 208 of [SUBCATCHMENT] section:
  01N0202_1 -1 01N0202 0.690000 40.000000 79.200000 10.000000 0.000000

  
  ERROR 209: undefined object -1 at line 210 of [SUBCATCHMENT] section:
  01N0203_1 -1 01N0203 4.980000 35.000000 103.600000 30.000000 0.000000

  
  Maximum error count exceeded.

  Analysis begun on:  Wed Jun 24 12:14:53 2026
  Analysis ended on:  Wed Jun 24 12:14:53 2026
  Total elapsed time: < 1 sec