
  EPA STORM WATER MANAGEMENT MODEL - VERSION 5.2 (Build 5.2.4)
  ------------------------------------------------------------

  
  ****************
  Analysis Options
  ****************
  Flow Units ............... CFS
  Process Models:
    Rainfall/Runoff ........ YES
    RDII ................... NO
    Snowmelt ............... NO
    Groundwater ............ NO
    Flow Routing ........... YES
    Ponding Allowed ........ YES
    Water Quality .......... NO
  Infiltration Method ...... HORTON
  Flow Routing Method ...... DYNWAVE
  Surcharge Method ......... EXTRAN
  Starting Date ............ 01/01/2002 00:00:00
  Ending Date .............. 01/01/2002 06:00:00
  Antecedent Dry Days ...... 5.0
  Report Time Step ......... 00:01:00
  Wet Time Step ............ 00:01:00
  Dry Time Step ............ 01:00:00
  Routing Time Step ........ 10.00 sec
  Variable Time Step ....... YES
  Maximum Trials ........... 8
  Number of Threads ........ 1
  Head Tolerance ........... 0.005000 ft
  
  
  **************************        Volume         Depth
  Runoff Quantity Continuity     acre-feet        inches
  **************************     ---------       -------
  Total Precipitation ......        53.318         3.220
  Evaporation Loss .........         0.000         0.000
  Infiltration Loss ........        34.437         2.080
  Surface Runoff ...........        18.723         1.131
  Final Storage ............         0.184         0.011
  Continuity Error (%) .....        -0.050
  
  
  **************************        Volume        Volume
  Flow Routing Continuity        acre-feet      10^6 gal
  **************************     ---------     ---------
  Dry Weather Inflow .......         0.000         0.000
  Wet Weather Inflow .......        18.727         6.103
  Groundwater Inflow .......         0.000         0.000
  RDII Inflow ..............         0.000         0.000
  External Inflow ..........         0.000         0.000
  External Outflow .........         2.757         0.899
  Flooding Loss ............         7.666         2.498
  Evaporation Loss .........         0.000         0.000
  Exfiltration Loss ........         0.000         0.000
  Initial Stored Volume ....         2.572         0.838
  Final Stored Volume ......        10.808         3.522
  Continuity Error (%) .....         0.317
  
  
  *************************
  Highest Continuity Errors
  *************************
  Node STOR-10 (3.30%)
  Node STOR-36 (3.12%)
  Node JCT-402 (2.53%)
  Node JCT-677 (1.68%)
  Node JCT-694 (1.61%)
  
  
  ***************************
  Time-Step Critical Elements
  ***************************
  None
  
  
  ********************************
  Highest Flow Instability Indexes
  ********************************
  Link CDT-395 (20)
  Link CDT-578 (17)
  Link CDT-666 (10)
  Link CDT-574 (6)
  Link CDT-558 (5)
  
  
  *********************************
  Most Frequent Nonconverging Nodes
  *********************************
  Node OFALL-10 (1.94%)
  Node OFALL-20 (1.94%)
  Node OFALL-26 (1.94%)
  Node STOR-54 (0.46%)
  Node STOR-20 (0.28%)
  
  
  *************************
  Routing Time Step Summary
  *************************
  Minimum Time Step           :     1.57 sec
  Average Time Step           :     9.98 sec
  Maximum Time Step           :    10.00 sec
  % of Time in Steady State   :     0.00
  Average Iterations per Step :     2.29
  % of Steps Not Converging   :     1.94
  Time Step Frequencies       :
     10.000 -  1.585 sec      :    99.95 %
      1.585 -  0.251 sec      :     0.05 %
      0.251 -  0.040 sec      :     0.00 %
      0.040 -  0.006 sec      :     0.00 %
      0.006 -  0.001 sec      :     0.00 %
  
  
  ***************************
  Subcatchment Runoff Summary
  ***************************
  
  ------------------------------------------------------------------------------------------------------------------------------
                            Total      Total      Total      Total     Imperv       Perv      Total       Total     Peak  Runoff
                           Precip      Runon       Evap      Infil     Runoff     Runoff     Runoff      Runoff   Runoff   Coeff
  Subcatchment                 in         in         in         in         in         in         in    10^6 gal      CFS
  ------------------------------------------------------------------------------------------------------------------------------
  SUB-100                    3.22       0.50       0.00       1.50       1.89       0.32       2.21        0.05     5.50   0.595
  SUB-102                    3.22       0.00       0.00       1.90       1.13       0.18       1.31        0.03     3.89   0.408
  SUB-104                    3.22       0.00       0.00       1.29       1.78       0.13       1.91        0.02     2.92   0.594
  SUB-106                    3.22       0.00       0.00       1.30       1.73       0.17       1.90        0.03     3.49   0.591
  SUB-108                    3.22       0.00       0.00       1.35       1.00       0.95       1.86        0.15    13.39   0.577
  SUB-110                    3.22       0.00       0.00       2.87       0.16       0.21       0.35        0.01     1.76   0.109
  SUB-112                    3.22       0.00       0.00       2.88       0.18       0.17       0.33        0.01     1.09   0.104
  SUB-114                    3.22       0.00       0.00       1.69       1.44       0.22       1.52        0.04     4.34   0.471
  SUB-116                    3.22       0.49       0.00       2.00       1.41       0.42       1.69        0.06     5.47   0.456
  SUB-118                    3.22       0.00       0.00       2.82       0.32       0.07       0.39        0.02     1.51   0.122
  SUB-120                    3.22       0.00       0.00       2.01       1.10       0.21       1.20        0.05     4.71   0.371
  SUB-122                    3.22       0.00       0.00       1.53       1.35       0.46       1.67        0.11    10.77   0.520
  SUB-124                    3.22       0.00       0.00       0.89       1.75       0.73       2.31        0.08     7.67   0.717
  SUB-126                    3.22       0.00       0.00       2.83       0.25       0.16       0.39        0.02     1.46   0.121
  SUB-128                    3.22       0.00       0.00       1.98       1.16       0.19       1.23        0.04     3.75   0.381
  SUB-130                    3.22       0.00       0.00       1.58       1.55       0.23       1.62        0.04     4.57   0.504
  SUB-132                    3.22       0.00       0.00       1.30       1.86       0.23       1.90        0.03     3.45   0.591
  SUB-134                    3.22       0.20       0.00       1.73       1.53       0.30       1.68        0.07     6.27   0.491
  SUB-136                    3.22       0.00       0.00       3.08       0.17       0.14       0.14        0.01     0.64   0.043
  SUB-138                    3.22       0.00       0.00       1.59       1.56       0.21       1.61        0.08     7.43   0.501
  SUB-140                    3.22       0.00       0.00       1.45       1.70       0.22       1.75        0.08     8.35   0.544
  SUB-142                    3.22       0.00       0.00       1.49       1.65       0.22       1.71        0.08     8.50   0.532
  SUB-144                    3.22       0.00       0.00       1.40       1.76       0.22       1.80        0.07     7.68   0.560
  SUB-146                    3.22       0.00       0.00       1.59       1.56       0.21       1.61        0.10     9.75   0.500
  SUB-148                    3.22       0.00       0.00       1.21       1.96       0.23       1.99        0.04     5.04   0.619
  SUB-150                    3.22       0.00       0.00       1.28       1.53       0.55       1.93        0.09     8.23   0.598
  SUB-152                    3.22       0.00       0.00       0.93       1.68       0.76       2.27        0.07     7.57   0.705
  SUB-154                    3.22       0.00       0.00       1.25       1.91       0.23       1.95        0.05     5.01   0.607
  SUB-156                    3.22       0.00       0.00       1.29       1.16       0.88       1.92        0.08     6.58   0.597
  SUB-158                    3.22       0.00       0.00       0.46       2.42       0.32       2.74        0.02     2.46   0.851
  SUB-160                    3.22       0.00       0.00       0.40       2.55       0.50       2.79        0.03     3.24   0.866
  SUB-162                    3.22       0.00       0.00       2.21       0.92       0.17       1.00        0.05     4.20   0.311
  SUB-164                    3.22       0.00       0.00       1.53       1.62       0.22       1.68        0.03     3.43   0.521
  SUB-166                    3.22       0.36       0.00       1.56       1.82       0.37       2.00        0.09     7.88   0.560
  SUB-168                    3.22       0.00       0.00       2.65       0.70       0.56       0.56        0.02     1.42   0.175
  SUB-170                    3.22       0.00       0.00       2.89       0.16       0.19       0.33        0.01     1.71   0.104
  SUB-172                    3.22       0.00       0.00       2.48       0.67       0.13       0.73        0.04     3.24   0.227
  SUB-174                    3.22       0.00       0.00       2.65       0.49       0.12       0.56        0.05     3.86   0.174
  SUB-176                    3.22       0.00       0.00       2.05       1.07       0.19       1.16        0.04     4.06   0.360
  SUB-178                    3.22       0.00       0.00       1.06       2.11       0.24       2.14        0.05     5.92   0.663
  SUB-180                    3.22       0.00       0.00       1.56       1.59       0.21       1.64        0.11    11.23   0.511
  SUB-182                    3.22       0.00       0.00       1.37       1.80       0.21       1.83        0.09     9.26   0.569
  SUB-184                    3.22       0.00       0.00       0.82       2.38       0.24       2.38        0.04     4.16   0.739
  SUB-186                    3.22       0.00       0.00       0.90       2.29       0.23       2.29        0.03     3.71   0.713
  SUB-188                    3.22       0.00       0.00       1.16       1.93       0.11       2.05        0.01     1.24   0.635
  SUB-190                    3.22       0.00       0.00       2.20       0.98       0.13       1.01        0.10     9.23   0.313
  SUB-192                    3.22       0.00       0.00       1.08       2.10       0.23       2.12        0.04     4.96   0.659
  SUB-194                    3.22       0.00       0.00       1.26       1.56       0.54       1.95        0.16    14.65   0.605
  SUB-196                    3.22       0.00       0.00       0.89       1.75       0.74       2.31        0.04     4.02   0.719
  SUB-198                    3.22       0.00       0.00       1.57       0.58       1.12       1.64        0.08     9.64   0.510
  SUB-200                    3.22       0.00       0.00       1.71       0.65       0.85       1.50        0.13     7.39   0.466
  SUB-202                    3.22       0.00       0.00       0.78       2.10       0.53       2.42        0.04     4.04   0.751
  SUB-204                    3.22       0.00       0.00       1.80       0.49       0.97       1.42        0.03     4.27   0.440
  SUB-206                    3.22       0.00       0.00       2.04       0.27       1.18       1.18        0.06     3.22   0.367
  SUB-208                    3.22       0.00       0.00       2.91       0.17       0.16       0.31        0.01     1.09   0.096
  SUB-210                    3.22       0.00       0.00       2.43       0.70       0.15       0.78        0.05     4.26   0.243
  SUB-212                    3.22       0.00       0.00       1.92       1.19       0.21       1.28        0.05     4.58   0.399
  SUB-214                    3.22       0.00       0.00       2.51       0.62       0.14       0.71        0.03     2.61   0.219
  SUB-216                    3.22       0.00       0.00       1.91       1.22       0.20       1.30        0.12    11.58   0.403
  SUB-218                    3.22       0.00       0.00       1.53       1.61       0.22       1.67        0.11    11.79   0.518
  SUB-220                    3.22       0.00       0.00       1.51       1.63       0.22       1.69        0.10     9.95   0.525
  SUB-222                    3.22       0.00       0.00       2.48       0.87       0.73       0.73        0.04     4.31   0.227
  SUB-224                    3.22       0.00       0.00       2.92       0.47       0.29       0.29        0.03     1.97   0.090
  SUB-226                    3.22       0.00       0.00       2.75       0.64       0.46       0.46        0.02     1.81   0.142
  SUB-228                    3.22       0.00       0.00       1.38       1.79       0.21       1.83        0.02     2.34   0.567
  SUB-230                    3.22       0.00       0.00       1.44       1.71       0.22       1.76        0.03     3.32   0.547
  SUB-232                    3.22       0.00       0.00       1.48       1.66       0.23       1.73        0.01     1.37   0.536
  SUB-234                    3.22       0.00       0.00       1.33       1.82       0.23       1.87        0.02     2.28   0.580
  SUB-236                    3.22       0.00       0.00       1.64       1.42       0.29       1.56        0.05     4.78   0.486
  SUB-238                    3.22       0.00       0.00       1.39       1.77       0.22       1.81        0.04     4.58   0.563
  SUB-240                    3.22       0.00       0.00       1.08       2.10       0.23       2.12        0.03     3.99   0.659
  SUB-242                    3.22       0.00       0.00       1.92       1.22       0.20       1.29        0.11    10.66   0.401
  SUB-244                    3.22       0.00       0.00       1.77       1.44       0.15       1.44        0.03     3.06   0.446
  SUB-246                    3.22       0.00       0.00       1.60       1.55       0.21       1.60        0.12    11.39   0.498
  SUB-248                    3.22       0.00       0.00       1.00       2.18       0.23       2.19        0.06     6.53   0.681
  SUB-250                    3.22       0.00       0.00       2.75       0.27       0.22       0.47        0.01     1.08   0.145
  SUB-252                    3.22       0.00       0.00       2.03       1.10       0.19       1.18        0.05     4.41   0.367
  SUB-254                    3.22       0.00       0.00       1.86       1.27       0.20       1.35        0.11    10.11   0.418
  SUB-256                    3.22       0.00       0.00       1.74       1.41       0.20       1.47        0.07     7.20   0.456
  SUB-258                    3.22       0.00       0.00       2.54       0.57       0.16       0.68        0.05     4.81   0.210
  SUB-260                    3.22       0.00       0.00       2.39       0.74       0.16       0.82        0.03     3.08   0.256
  SUB-262                    3.22       0.00       0.00       1.57       1.58       0.21       1.63        0.06     5.59   0.507
  SUB-264                    3.22       0.00       0.00       1.19       1.97       0.23       2.01        0.05     5.73   0.623
  SUB-266                    3.22       0.00       0.00       1.26       1.90       0.23       1.95        0.05     5.79   0.604
  SUB-268                    3.22       0.00       0.00       2.26       0.86       0.18       0.96        0.04     3.96   0.297
  SUB-270                    3.22       0.00       0.00       1.00       2.18       0.23       2.20        0.06     6.22   0.682
  SUB-272                    3.22       0.00       0.00       2.15       0.94       0.21       1.06        0.09     8.56   0.329
  SUB-274                    3.22       0.00       0.00       1.56       1.59       0.21       1.64        0.04     3.62   0.509
  SUB-276                    3.22       0.00       0.00       1.60       1.55       0.21       1.61        0.09     8.73   0.499
  SUB-278                    3.22       0.00       0.00       1.88       1.33       0.17       1.33        0.04     3.29   0.412
  SUB-280                    3.22       0.00       0.00       2.90       0.06       0.32       0.32        0.00     0.29   0.100
  SUB-282                    3.22       0.00       0.00       2.13       0.99       0.19       1.08        0.06     5.49   0.335
  SUB-284                    3.22       0.00       0.00       2.08       1.09       0.15       1.13        0.07     6.10   0.351
  SUB-288                    3.22       0.00       0.00       1.34       1.82       0.22       1.86        0.04     4.01   0.578
  SUB-290                    3.22       0.00       0.00       1.62       1.52       0.21       1.58        0.07     6.46   0.491
  SUB-292                    3.22       0.00       0.00       1.36       1.79       0.23       1.84        0.02     2.39   0.572
  SUB-294                    3.22       0.00       0.00       2.88       0.06       0.35       0.35        0.00     0.24   0.109
  SUB-296                    3.22       0.00       0.00       2.88       0.06       0.35       0.35        0.00     0.24   0.109
  SUB-298                    3.22       0.00       0.00       2.51       0.62       0.15       0.71        0.10     8.40   0.220
  SUB-300                    3.22       0.00       0.00       2.98       0.06       0.24       0.24        0.01     2.56   0.075
  SUB-302                    3.22       0.21       0.00       2.43       0.77       0.30       0.99        0.07     5.11   0.290
  SUB-304                    3.22       0.00       0.00       1.77       1.44       0.15       1.44        0.02     1.95   0.446
  SUB-306                    3.22       0.00       0.00       1.79       1.33       0.22       1.41        0.03     3.16   0.439
  SUB-308                    3.22       0.00       0.00       1.33       1.82       0.24       1.87        0.02     2.70   0.581
  SUB-310                    3.22       0.00       0.00       2.05       1.05       0.21       1.16        0.07     6.48   0.359
  SUB-312                    3.22       0.00       0.00       1.08       2.10       0.24       2.12        0.03     3.37   0.659
  SUB-314                    3.22       0.00       0.00       0.84       2.36       0.24       2.36        0.03     3.20   0.733
  SUB-316                    3.22       0.00       0.00       0.86       2.24       0.09       2.34        0.02     2.26   0.725
  SUB-318                    3.22       0.00       0.00       1.71       1.49       0.12       1.49        0.01     1.29   0.464
  SUB-320                    3.22       0.00       0.00       1.65       1.48       0.23       1.56        0.02     1.87   0.484
  SUB-322                    3.22       0.00       0.00       1.65       1.56       0.15       1.56        0.01     0.92   0.484
  SUB-324                    3.22       0.00       0.00       0.92       2.26       0.24       2.27        0.02     2.24   0.706
  SUB-326                    3.22       0.00       0.00       1.00       2.18       0.24       2.20        0.03     4.03   0.684
  SUB-328                    3.22       0.00       0.00       2.64       0.38       0.23       0.58        0.03     4.11   0.180
  SUB-330                    3.22       0.00       0.00       2.97       0.06       0.25       0.25        0.04     7.86   0.079
  SUB-332                    3.22       0.00       0.00       1.47       1.59       0.14       1.74        0.01     1.49   0.540
  SUB-333                    3.22       0.00       0.00       2.54       0.06       0.68       0.68        0.05     2.67   0.212
  SUB-334                    3.22       0.00       0.00       2.52       0.06       0.70       0.70        0.16     7.50   0.217
  SUB-335                    3.22       0.00       0.00       2.49       0.06       0.73       0.73        0.04     2.33   0.226
  SUB-336                    3.22       0.00       0.00       2.71       0.16       0.51       0.51        0.10     3.72   0.158
  SUB-338                    3.22       0.00       0.00       2.91       0.06       0.31       0.31        0.00     0.19   0.096
  SUB-340                    3.22       0.00       0.00       3.06       0.06       0.16       0.16        0.00     0.07   0.050
  SUB-342                    3.22       0.00       0.00       3.02       0.06       0.20       0.20        0.00     0.36   0.063
  SUB-344                    3.22       0.00       0.00       3.09       0.06       0.13       0.13        0.01     1.12   0.042
  SUB-346                    3.22       0.00       0.00       3.05       0.06       0.17       0.17        0.01     1.79   0.054
  SUB-348                    3.22       0.00       0.00       2.97       0.06       0.25       0.25        0.01     1.97   0.076
  SUB-350                    3.22       0.00       0.00       3.00       0.06       0.22       0.22        0.01     1.20   0.067
  SUB-352                    3.22       0.00       0.00       3.06       0.06       0.16       0.16        0.01     0.79   0.049
  
  
  ******************
  Node Depth Summary
  ******************
  
  ---------------------------------------------------------------------------------
                                 Average  Maximum  Maximum  Time of Max    Reported
                                   Depth    Depth      HGL   Occurrence   Max Depth
  Node                 Type         Feet     Feet     Feet  days hr:min        Feet
  ---------------------------------------------------------------------------------
  CDT-667              JUNCTION     0.38     1.22  4930.06     0  00:41        1.22
  JCT-100              JUNCTION     0.07     0.36  4947.11     0  00:35        0.36
  JCT-104              JUNCTION     0.07     0.36  4946.23     0  00:35        0.36
  JCT-108              JUNCTION     0.11     0.48  4946.08     0  00:35        0.48
  JCT-112              JUNCTION     0.11     0.49  4944.55     0  00:35        0.49
  JCT-116              JUNCTION     0.13     0.55  4943.46     0  00:36        0.55
  JCT-120              JUNCTION     0.07     0.32  4944.73     0  00:35        0.32
  JCT-124              JUNCTION     0.14     0.57  4941.97     0  00:37        0.57
  JCT-128              JUNCTION     0.17     0.65  4941.99     0  00:41        0.65
  JCT-132              JUNCTION     0.06     0.30  4947.99     0  00:35        0.30
  JCT-136              JUNCTION     0.15     0.62  4942.22     0  00:40        0.62
  JCT-140              JUNCTION     0.06     0.30  4948.22     0  00:35        0.30
  JCT-144              JUNCTION     0.14     0.56  4943.22     0  00:39        0.56
  JCT-148              JUNCTION     0.15     0.61  4944.32     0  00:37        0.61
  JCT-152              JUNCTION     0.06     0.28  4953.18     0  00:35        0.28
  JCT-156              JUNCTION     0.13     0.54  4944.44     0  00:36        0.54
  JCT-160              JUNCTION     0.06     0.29  4956.12     0  00:35        0.28
  JCT-164              JUNCTION     0.10     0.44  4945.53     0  00:35        0.44
  JCT-166              JUNCTION     0.10     0.43  4946.46     0  00:36        0.43
  JCT-168              JUNCTION     0.06     0.32  4962.90     0  00:35        0.32
  JCT-172              JUNCTION     0.08     0.39  4959.09     0  00:35        0.38
  JCT-176              JUNCTION     0.11     0.47  4942.72     0  00:36        0.47
  JCT-180              JUNCTION     0.09     0.40  4943.49     0  00:35        0.40
  JCT-184              JUNCTION     0.11     0.49  4942.17     0  00:36        0.49
  JCT-188              JUNCTION     0.06     0.29  4943.16     0  00:35        0.29
  JCT-192              JUNCTION     0.06     0.30  4941.03     0  00:35        0.30
  JCT-196              JUNCTION     0.19     0.60  4939.97     0  00:37        0.60
  JCT-200              JUNCTION     0.13     0.53  4939.95     0  00:37        0.53
  JCT-204              JUNCTION     0.13     0.55  4939.46     0  00:38        0.55
  JCT-208              JUNCTION     0.06     0.31  4940.03     0  00:35        0.31
  JCT-212              JUNCTION     0.14     0.57  4934.18     0  00:39        0.57
  JCT-216              JUNCTION     0.14     0.57  4930.82     0  00:40        0.57
  JCT-220              JUNCTION     0.06     0.28  4938.18     0  00:35        0.28
  JCT-224              JUNCTION     0.06     0.30  4937.22     0  00:35        0.30
  JCT-228              JUNCTION     0.15     0.60  4930.20     0  00:40        0.60
  JCT-232              JUNCTION     0.10     0.59  4921.45     0  00:40        0.59
  JCT-240              JUNCTION     0.04     0.22  4916.95     0  00:35        0.22
  JCT-241              JUNCTION     0.11     0.57  4914.37     0  00:49        0.57
  JCT-242              JUNCTION     0.12     0.60  4913.00     0  00:50        0.60
  JCT-243              JUNCTION     0.24     0.90  4914.06     0  00:55        0.90
  JCT-244              JUNCTION     0.07     0.34  4949.15     0  00:35        0.34
  JCT-248              JUNCTION     0.09     0.42  4947.11     0  00:35        0.42
  JCT-252              JUNCTION     0.11     0.49  4946.23     0  00:35        0.49
  JCT-256              JUNCTION     0.12     0.52  4944.58     0  00:37        0.52
  JCT-260              JUNCTION     0.06     0.30  4948.09     0  00:35        0.30
  JCT-264              JUNCTION     0.08     0.36  4947.92     0  00:35        0.36
  JCT-268              JUNCTION     0.13     0.58  4944.38     0  00:37        0.58
  JCT-272              JUNCTION     0.15     0.63  4943.46     0  00:38        0.63
  JCT-276              JUNCTION     0.14     0.68  4942.85     0  00:40        0.68
  JCT-280              JUNCTION     0.11     0.46  4947.16     0  00:36        0.46
  JCT-282              JUNCTION     0.09     0.41  4951.24     0  00:35        0.41
  JCT-284              JUNCTION     0.17     0.76  4942.65     0  00:39        0.76
  JCT-288              JUNCTION     0.06     0.34  4947.92     0  00:35        0.34
  JCT-290              JUNCTION     0.09     0.45  4947.83     0  00:35        0.44
  JCT-292              JUNCTION     0.10     0.48  4944.33     0  00:35        0.48
  JCT-300              JUNCTION     0.11     0.50  4939.28     0  00:35        0.50
  JCT-304              JUNCTION     0.12     0.53  4937.13     0  00:40        0.53
  JCT-308              JUNCTION     0.11     0.58  4935.99     0  00:37        0.58
  JCT-312              JUNCTION     0.11     0.47  4939.50     0  00:35        0.47
  JCT-316              JUNCTION     0.10     0.50  4936.19     0  00:36        0.50
  JCT-320              JUNCTION     0.09     0.44  4939.52     0  00:35        0.44
  JCT-324              JUNCTION     0.12     0.59  4934.43     0  00:40        0.59
  JCT-328              JUNCTION     0.09     0.60  4932.05     0  00:41        0.60
  JCT-332              JUNCTION     0.09     0.68  4931.91     0  00:41        0.68
  JCT-336              JUNCTION     0.10     0.44  4940.13     0  00:35        0.43
  JCT-340              JUNCTION     0.12     0.49  4934.38     0  00:36        0.49
  JCT-344              JUNCTION     0.11     0.65  4931.41     0  00:41        0.65
  JCT-348              JUNCTION     0.16     0.73  4930.82     0  00:41        0.73
  JCT-352              JUNCTION     0.08     0.36  4943.38     0  00:35        0.36
  JCT-356              JUNCTION     0.09     0.42  4938.60     0  00:36        0.42
  JCT-360              JUNCTION     0.15     0.63  4935.14     0  00:37        0.63
  JCT-364              JUNCTION     0.14     0.60  4933.75     0  00:38        0.60
  JCT-368              JUNCTION     0.08     0.38  4943.43     0  00:35        0.38
  JCT-372              JUNCTION     0.12     0.50  4940.32     0  00:35        0.50
  JCT-376              JUNCTION     0.11     0.48  4939.41     0  00:36        0.48
  JCT-380              JUNCTION     0.07     0.36  4940.11     0  00:35        0.36
  JCT-384              JUNCTION     0.13     0.54  4935.61     0  00:36        0.54
  JCT-388              JUNCTION     0.08     0.38  4937.96     0  00:35        0.38
  JCT-392              JUNCTION     0.13     0.74  4924.20     0  00:41        0.74
  JCT-396              JUNCTION     0.24     0.95  4918.34     0  00:34        0.94
  JCT-400              JUNCTION     0.12     0.62  4918.37     0  00:35        0.62
  JCT-402              JUNCTION     2.24     2.89  4914.29     0  02:47        2.87
  JCT-406              JUNCTION     0.11     0.43  4933.43     0  00:41        0.43
  JCT-410              JUNCTION     0.07     0.35  4960.46     0  00:35        0.35
  JCT-412              JUNCTION     0.07     0.33  4951.09     0  00:35        0.33
  JCT-414              JUNCTION     0.09     0.40  4955.73     0  00:36        0.40
  JCT-416              JUNCTION     0.09     0.42  4947.31     0  00:35        0.42
  JCT-418              JUNCTION     0.10     0.41  4951.77     0  00:40        0.41
  JCT-420              JUNCTION     0.12     0.54  4947.00     0  00:36        0.53
  JCT-424              JUNCTION     0.09     0.43  4949.35     0  00:35        0.43
  JCT-428              JUNCTION     0.07     0.51  4945.20     0  00:37        0.51
  JCT-432              JUNCTION     0.10     0.59  4944.66     0  00:39        0.59
  JCT-436              JUNCTION     0.13     0.61  4940.09     0  00:40        0.61
  JCT-444              JUNCTION     0.06     0.30  4932.61     0  00:35        0.30
  JCT-448              JUNCTION     0.09     0.43  4950.71     0  00:35        0.43
  JCT-452              JUNCTION     0.10     0.51  4947.35     0  00:37        0.50
  JCT-454              JUNCTION     0.08     0.36  4951.93     0  00:35        0.36
  JCT-456              JUNCTION     0.11     0.48  4949.60     0  00:36        0.48
  JCT-460              JUNCTION     0.12     0.56  4947.13     0  00:38        0.56
  JCT-464              JUNCTION     0.09     0.43  4948.72     0  00:35        0.43
  JCT-468              JUNCTION     0.10     0.55  4944.98     0  00:40        0.55
  JCT-472              JUNCTION     0.10     0.45  4947.30     0  00:35        0.44
  JCT-476              JUNCTION     0.07     0.34  4946.60     0  00:35        0.34
  JCT-480              JUNCTION     0.10     0.44  4941.71     0  00:36        0.44
  JCT-484              JUNCTION     0.08     0.38  4944.89     0  00:35        0.38
  JCT-488              JUNCTION     0.12     0.57  4938.15     0  00:39        0.56
  JCT-491              JUNCTION     0.15     0.78  4935.58     0  00:42        0.78
  JCT-492              JUNCTION     0.22     1.02  4935.27     0  00:42        1.02
  JCT-496              JUNCTION     0.14     0.71  4934.91     0  00:42        0.71
  JCT-500              JUNCTION     0.07     0.33  4941.71     0  00:35        0.33
  JCT-504              JUNCTION     0.08     0.38  4936.52     0  00:35        0.38
  JCT-508              JUNCTION     0.14     0.65  4934.26     0  00:43        0.64
  JCT-516              JUNCTION     0.10     0.46  4948.85     0  00:35        0.46
  JCT-520              JUNCTION     0.12     0.51  4944.82     0  00:36        0.51
  JCT-524              JUNCTION     0.13     0.56  4942.67     0  00:38        0.56
  JCT-528              JUNCTION     0.13     0.54  4941.34     0  00:40        0.54
  JCT-532              JUNCTION     0.15     0.69  4939.52     0  00:40        0.69
  JCT-536              JUNCTION     0.08     0.35  4945.07     0  00:35        0.35
  JCT-540              JUNCTION     0.12     0.48  4941.06     0  00:36        0.48
  JCT-544              JUNCTION     0.11     0.49  4939.74     0  00:36        0.49
  JCT-548              JUNCTION     0.08     0.38  4943.00     0  00:35        0.38
  JCT-552              JUNCTION     0.15     0.69  4937.38     0  00:41        0.69
  JCT-554              JUNCTION     0.16     0.69  4935.94     0  00:41        0.69
  JCT-556              JUNCTION     0.08     0.37  4934.27     0  00:35        0.36
  JCT-558              JUNCTION     0.19     0.66  4933.09     0  00:46        0.66
  JCT-564              JUNCTION     0.07     0.34  4934.15     0  00:35        0.34
  JCT-568              JUNCTION     0.17     0.58  4932.61     0  00:46        0.58
  JCT-570              JUNCTION     0.11     0.55  4929.07     0  00:47        0.55
  JCT-572              JUNCTION     0.09     0.43  4928.52     0  00:35        0.43
  JCT-574              JUNCTION     0.12     0.54  4921.05     0  00:48        0.54
  JCT-575              JUNCTION     0.11     0.61  4914.78     0  00:49        0.61
  JCT-576              JUNCTION     0.11     0.49  4922.82     0  00:35        0.49
  JCT-577              JUNCTION     0.05     0.28  4916.41     0  00:35        0.28
  JCT-580              JUNCTION     0.07     0.36  4929.41     0  00:35        0.36
  JCT-584              JUNCTION     0.11     0.48  4923.21     0  00:36        0.48
  JCT-588              JUNCTION     0.12     0.52  4922.69     0  00:36        0.52
  JCT-592              JUNCTION     0.12     0.54  4920.61     0  00:37        0.54
  JCT-596              JUNCTION     0.10     0.45  4926.75     0  00:35        0.45
  JCT-600              JUNCTION     0.07     0.36  4927.85     0  00:35        0.35
  JCT-604              JUNCTION     0.01     0.25  4988.05     0  00:35        0.25
  JCT-608              JUNCTION     0.01     0.20  4986.11     0  00:36        0.20
  JCT-612              JUNCTION     0.02     0.27  4977.17     0  00:40        0.27
  JCT-616              JUNCTION     0.06     0.44  4959.62     0  00:42        0.44
  JCT-620              JUNCTION     0.09     0.58  4948.16     0  00:43        0.58
  JCT-624              JUNCTION     0.13     0.84  4938.68     0  00:45        0.84
  JCT-628              JUNCTION     0.17     0.98  4936.75     0  00:46        0.98
  JCT-632              JUNCTION     0.25     1.06  4935.50     0  00:47        1.06
  JCT-636              JUNCTION     0.27     1.50  4935.25     0  00:41        1.50
  JCT-638              JUNCTION     0.07     0.35  4941.14     0  00:35        0.34
  JCT-640              JUNCTION     0.15     0.59  4940.41     0  00:41        0.59
  JCT-644              JUNCTION     0.20     0.70  4935.42     0  00:44        0.70
  JCT-648              JUNCTION     0.12     0.54  4932.67     0  00:40        0.54
  JCT-650              JUNCTION     0.36     1.01  4934.09     0  00:41        1.01
  JCT-651              JUNCTION     0.17     0.50  4920.50     0  00:41        0.50
  JCT-652              JUNCTION     0.19     0.67  4937.85     0  00:40        0.67
  JCT-656              JUNCTION     0.15     0.68  4931.40     0  00:37        0.68
  JCT-658              JUNCTION     0.45     1.50  4926.14     0  00:41        1.50
  JCT-660              JUNCTION     0.36     1.22  4923.58     0  00:42        1.22
  JCT-664              JUNCTION     0.13     0.53  4942.44     0  00:37        0.53
  JCT-668              JUNCTION     0.18     0.76  4939.49     0  00:38        0.76
  JCT-670              JUNCTION     0.13     0.53  4936.49     0  00:37        0.53
  JCT-672              JUNCTION     0.17     0.64  4934.93     0  00:39        0.64
  JCT-673              JUNCTION     0.16     0.51  4930.64     0  00:42        0.51
  JCT-674              JUNCTION     0.26     0.72  4927.35     0  01:14        0.72
  JCT-677              JUNCTION     1.71     2.22  4914.24     0  02:43        2.22
  JCT-678              JUNCTION     0.27     1.40  4928.71     0  00:35        1.39
  JCT-682              JUNCTION     0.28     1.61  4925.98     0  00:36        1.60
  JCT-686              JUNCTION     0.31     1.58  4924.34     0  00:37        1.58
  JCT-690              JUNCTION     0.41     1.68  4922.92     0  00:38        1.68
  JCT-692              JUNCTION     0.38     1.38  4921.10     0  00:41        1.38
  JCT-694              JUNCTION     2.33     2.86  4914.24     0  02:42        2.86
  OFALL-10             OUTFALL      0.00     0.00  4907.75     0  00:00        0.00
  OFALL-20             OUTFALL      0.10     0.42  4932.92     0  00:48        0.42
  OFALL-26             OUTFALL      0.00     0.00  4907.00     0  00:00        0.00
  STOR-10              STORAGE      4.61     5.24  4914.24     0  02:44        5.24
  STOR-12              STORAGE      0.77     4.36  4942.86     0  00:39        4.36
  STOR-14              STORAGE      1.24     4.50  4941.92     0  00:33        4.50
  STOR-16              STORAGE      1.55     4.50  4941.68     0  00:34        4.50
  STOR-18              STORAGE      0.44     3.41  4936.30     0  00:36        3.41
  STOR-20              STORAGE      0.49     3.47  4936.09     0  00:41        3.47
  STOR-22              STORAGE      0.52     3.59  4932.23     0  00:40        3.59
  STOR-24              STORAGE      0.57     3.48  4931.92     0  00:36        3.48
  STOR-26              STORAGE      0.47     3.43  4947.51     0  00:36        3.43
  STOR-28              STORAGE      0.72     5.53  4946.76     0  00:39        5.53
  STOR-30              STORAGE      0.62     4.47  4946.66     0  00:36        4.47
  STOR-32              STORAGE      0.67     3.52  4939.55     0  00:40        3.52
  STOR-34              STORAGE      0.50     3.42  4941.01     0  00:37        3.42
  STOR-36              STORAGE      0.19     1.06  4935.23     0  00:48        1.06
  STOR-40              STORAGE      0.89     2.50  4918.24     0  00:34        2.50
  STOR-42              STORAGE      0.58     2.50  4918.24     0  00:36        2.50
  STOR-44              STORAGE      1.41     4.50  4932.43     0  00:39        4.50
  STOR-46              STORAGE      1.19     4.50  4932.21     0  00:34        4.50
  STOR-48              STORAGE      0.76     3.71  4935.67     0  00:42        3.71
  STOR-50              STORAGE      0.94     3.55  4932.04     0  00:47        3.55
  STOR-52              STORAGE      0.61     2.51  4916.51     0  00:48        2.51
  STOR-54              STORAGE      0.57     2.52  4918.45     0  00:37        2.52
  STOR-56              STORAGE      0.46     2.46  4918.77     0  00:36        2.46
  STOR-58              STORAGE      0.84     3.72  4928.08     0  00:41        3.72
  STOR-60              STORAGE      0.82     3.56  4928.37     0  00:40        3.56
  STOR-70              STORAGE      1.13     4.50  4912.50     0  00:42        4.50
  
  
  *******************
  Node Inflow Summary
  *******************
  
  -------------------------------------------------------------------------------------------------
                                  Maximum  Maximum                  Lateral       Total        Flow
                                  Lateral    Total  Time of Max      Inflow      Inflow     Balance
                                   Inflow   Inflow   Occurrence      Volume      Volume       Error
  Node                 Type           CFS      CFS  days hr:min    10^6 gal    10^6 gal     Percent
  -------------------------------------------------------------------------------------------------
  CDT-667              JUNCTION      0.00    21.91     0  00:39           0       0.803       0.060
  JCT-100              JUNCTION      4.34     4.34     0  00:35      0.0427      0.0427      -0.129
  JCT-104              JUNCTION      0.00     4.21     0  00:35           0      0.0428       0.054
  JCT-108              JUNCTION      3.75     7.60     0  00:35      0.0401      0.0828       0.062
  JCT-112              JUNCTION      4.20    11.01     0  00:35      0.0461       0.129      -0.049
  JCT-116              JUNCTION      0.00    13.58     0  00:35           0       0.166       0.183
  JCT-120              JUNCTION      3.24     3.24     0  00:35      0.0368      0.0368      -0.600
  JCT-124              JUNCTION      3.86    15.59     0  00:36      0.0452       0.211      -0.780
  JCT-128              JUNCTION      0.00    22.15     0  00:40           0        0.32      -0.258
  JCT-132              JUNCTION      4.58     4.58     0  00:35      0.0464      0.0464      -1.491
  JCT-136              JUNCTION      0.00    18.90     0  00:40           0       0.274       0.209
  JCT-140              JUNCTION      4.26     4.26     0  00:35      0.0481      0.0481      -1.162
  JCT-144              JUNCTION      2.61    15.78     0  00:38      0.0299       0.225      -0.020
  JCT-148              JUNCTION      0.00    14.70     0  00:35           0       0.196       0.293
  JCT-152              JUNCTION      4.41     4.41     0  00:35       0.047       0.047      -0.858
  JCT-156              JUNCTION      0.00    11.86     0  00:35           0       0.149       0.219
  JCT-160              JUNCTION      4.81     4.81     0  00:35      0.0549      0.0549      -0.569
  JCT-164              JUNCTION      3.08     7.58     0  00:35      0.0345      0.0933      -0.070
  JCT-166              JUNCTION      0.00     5.28     0  00:35           0       0.059       0.384
  JCT-168              JUNCTION      5.49     5.49     0  00:35      0.0588      0.0588      -0.301
  JCT-172              JUNCTION      8.40     8.40     0  00:35      0.0959      0.0959      -0.465
  JCT-176              JUNCTION      0.00    12.73     0  00:35           0       0.164       0.392
  JCT-180              JUNCTION      5.11     5.11     0  00:35      0.0676      0.0676      -0.264
  JCT-184              JUNCTION      0.00    13.53     0  00:36           0       0.185       0.132
  JCT-188              JUNCTION      1.95     1.95     0  00:35      0.0214      0.0214      -1.087
  JCT-192              JUNCTION      2.24     2.24     0  00:35      0.0188      0.0188      -1.722
  JCT-196              JUNCTION      3.16     5.20     0  00:35      0.0313      0.0505       0.687
  JCT-200              JUNCTION      0.00    17.19     0  00:36           0       0.235       0.016
  JCT-204              JUNCTION      0.00    18.82     0  00:37           0       0.258       0.246
  JCT-208              JUNCTION      2.70     2.70     0  00:35      0.0231      0.0231      -1.143
  JCT-212              JUNCTION      6.48    23.25     0  00:39      0.0664       0.324      -0.113
  JCT-216              JUNCTION      0.00    25.18     0  00:39           0       0.354       0.253
  JCT-220              JUNCTION      3.37     3.37     0  00:35      0.0284      0.0284      -2.275
  JCT-224              JUNCTION      4.03     4.03     0  00:35      0.0341      0.0341      -2.437
  JCT-228              JUNCTION      3.20    29.15     0  00:40      0.0275       0.415       0.233
  JCT-232              JUNCTION      2.26    26.67     0  00:40      0.0204       0.296      -1.091
  JCT-240              JUNCTION      0.92     0.92     0  00:35     0.00983     0.00983      -3.338
  JCT-241              JUNCTION      0.00    20.11     0  00:49           0       0.297       0.133
  JCT-242              JUNCTION      1.49    20.38     0  00:49      0.0132        0.31      -0.575
  JCT-243              JUNCTION      3.72     3.72     0  00:55      0.0958      0.0958      -0.697
  JCT-244              JUNCTION      5.47     5.47     0  00:35      0.0609      0.0609      -0.102
  JCT-248              JUNCTION      0.00     5.35     0  00:35           0      0.0609       0.178
  JCT-252              JUNCTION      4.57     9.33     0  00:35      0.0416       0.102      -0.217
  JCT-256              JUNCTION      0.00    11.90     0  00:35           0       0.136       0.359
  JCT-260              JUNCTION      3.45     3.45     0  00:35      0.0327      0.0327      -0.823
  JCT-264              JUNCTION      6.27     6.27     0  00:35      0.0664      0.0664      -0.799
  JCT-268              JUNCTION      0.00    16.15     0  00:36           0       0.202       0.308
  JCT-272              JUNCTION      3.43    17.88     0  00:37      0.0335       0.235       0.020
  JCT-276              JUNCTION      0.00    26.01     0  00:38           0       0.278       0.345
  JCT-280              JUNCTION      7.88    14.24     0  00:35      0.0873       0.163      -0.234
  JCT-282              JUNCTION      7.43     7.43     0  00:35      0.0752      0.0752      -0.437
  JCT-284              JUNCTION      0.00    37.27     0  00:38           0       0.439      -0.284
  JCT-288              JUNCTION      5.92     5.92     0  00:35        0.05        0.05      -0.276
  JCT-290              JUNCTION     11.23    11.23     0  00:35       0.113       0.113      -0.175
  JCT-292              JUNCTION      0.00    16.53     0  00:35           0       0.164      -0.097
  JCT-300              JUNCTION     11.58    11.58     0  00:35       0.121       0.121      -0.914
  JCT-304              JUNCTION      4.31    14.09     0  00:35      0.0406       0.162       0.736
  JCT-308              JUNCTION      0.00    22.66     0  00:37           0       0.212      -0.139
  JCT-312              JUNCTION     11.79    11.79     0  00:35       0.114       0.114       0.029
  JCT-316              JUNCTION      0.00    14.92     0  00:35           0       0.132       0.310
  JCT-320              JUNCTION      9.95     9.95     0  00:35      0.0972      0.0972      -0.571
  JCT-324              JUNCTION      1.81    24.33     0  00:38      0.0242       0.236       0.804
  JCT-328              JUNCTION      0.00    21.94     0  00:40           0       0.165       0.360
  JCT-332              JUNCTION      0.00    31.13     0  00:41           0       0.245       0.173
  JCT-336              JUNCTION     10.11    10.11     0  00:35       0.105       0.105      -0.636
  JCT-340              JUNCTION      7.20    16.07     0  00:35      0.0747        0.18       0.434
  JCT-344              JUNCTION      3.96    33.18     0  00:41      0.0432       0.287      -0.073
  JCT-348              JUNCTION      0.00    58.96     0  00:40           0       0.639       0.067
  JCT-352              JUNCTION      5.73     5.73     0  00:35        0.05        0.05      -0.363
  JCT-356              JUNCTION      5.79    10.69     0  00:35      0.0521       0.102      -0.300
  JCT-360              JUNCTION      0.00    27.04     0  00:36           0        0.33       0.230
  JCT-364              JUNCTION      2.39    28.14     0  00:37      0.0226       0.352      -0.082
  JCT-368              JUNCTION      5.59     5.59     0  00:35      0.0565      0.0565      -0.466
  JCT-372              JUNCTION      6.10    11.04     0  00:35      0.0671       0.124       0.200
  JCT-376              JUNCTION      0.00    13.72     0  00:35           0       0.162       0.185
  JCT-380              JUNCTION      4.01     4.01     0  00:35      0.0385      0.0385      -0.523
  JCT-384              JUNCTION      0.00    18.74     0  00:35           0       0.228       0.178
  JCT-388              JUNCTION      6.46     6.46     0  00:35      0.0652      0.0652      -0.649
  JCT-392              JUNCTION      8.56    60.23     0  00:41       0.087       0.585      -0.949
  JCT-396              JUNCTION      0.00    38.93     0  00:36           0       0.298      -0.516
  JCT-400              JUNCTION      0.00    13.76     0  00:36           0       0.114       0.223
  JCT-402              JUNCTION      0.00     5.36     0  00:36           0       0.273       2.601
  JCT-406              JUNCTION      0.00     3.61     0  00:48           0       0.107      -0.001
  JCT-410              JUNCTION      3.89     3.89     0  00:35      0.0335      0.0335      -0.643
  JCT-412              JUNCTION      4.16     4.16     0  00:35      0.0356      0.0356      -0.398
  JCT-414              JUNCTION      2.92     5.95     0  00:35      0.0248      0.0585       0.002
  JCT-416              JUNCTION      3.71     7.57     0  00:35      0.0332      0.0689       0.126
  JCT-418              JUNCTION      3.49     7.89     0  00:35      0.0293      0.0878      -0.602
  JCT-420              JUNCTION      0.00    15.63     0  00:35           0       0.162       0.328
  JCT-424              JUNCTION      9.26     9.26     0  00:35      0.0931      0.0931      -0.394
  JCT-428              JUNCTION      1.24    11.52     0  00:36      0.0116      0.0716      -0.105
  JCT-432              JUNCTION      0.00    31.25     0  00:39           0       0.265       0.122
  JCT-436              JUNCTION      9.23    37.28     0  00:40       0.102       0.367      -1.344
  JCT-444              JUNCTION      2.34     2.34     0  00:35      0.0234      0.0234      -1.137
  JCT-448              JUNCTION      8.35     8.35     0  00:35      0.0817      0.0817      -1.029
  JCT-452              JUNCTION      0.00    14.69     0  00:36           0       0.128       0.728
  JCT-454              JUNCTION      4.71     4.71     0  00:35      0.0483      0.0483      -0.472
  JCT-456              JUNCTION      8.50    12.66     0  00:35       0.081       0.129       0.227
  JCT-460              JUNCTION      0.00    19.32     0  00:36           0       0.202       0.355
  JCT-464              JUNCTION      7.68     7.68     0  00:35      0.0742      0.0742      -0.838
  JCT-468              JUNCTION      0.00    21.24     0  00:39           0       0.194       0.212
  JCT-472              JUNCTION      9.75     9.75     0  00:35      0.0995      0.0995      -0.660
  JCT-476              JUNCTION      5.04     5.04     0  00:35      0.0445      0.0445      -0.813
  JCT-480              JUNCTION      0.00    12.61     0  00:35           0       0.134       0.457
  JCT-484              JUNCTION      8.23     8.23     0  00:35      0.0885      0.0885      -0.182
  JCT-488              JUNCTION     14.65    19.91     0  00:35       0.158       0.203      -0.990
  JCT-491              JUNCTION      0.00    47.11     0  00:40           0       0.501       0.396
  JCT-492              JUNCTION      1.37    46.87     0  00:42      0.0126       0.511       0.068
  JCT-496              JUNCTION      0.00    51.01     0  00:42           0       0.587       0.092
  JCT-500              JUNCTION      4.96     4.96     0  00:35      0.0437      0.0437      -0.193
  JCT-504              JUNCTION      3.32     7.89     0  00:35      0.0322       0.076      -0.570
  JCT-508              JUNCTION      4.58    52.82     0  00:42      0.0439       0.631      -0.199
  JCT-516              JUNCTION     10.77    10.77     0  00:35       0.107       0.107      -0.585
  JCT-520              JUNCTION      7.67    16.38     0  00:35      0.0772       0.184       0.304
  JCT-524              JUNCTION      2.46    15.82     0  00:36      0.0226       0.207       0.008
  JCT-528              JUNCTION      3.24    17.34     0  00:38      0.0298       0.236       0.096
  JCT-532              JUNCTION      4.02    30.92     0  00:39      0.0388       0.366      -0.066
  JCT-536              JUNCTION      5.01     5.01     0  00:35      0.0453      0.0453      -1.135
  JCT-540              JUNCTION      6.58    10.87     0  00:35      0.0842        0.13       0.408
  JCT-544              JUNCTION      0.00    16.16     0  00:35           0       0.204       0.120
  JCT-548              JUNCTION      7.57     7.57     0  00:35       0.074       0.074      -0.406
  JCT-552              JUNCTION      4.04    32.99     0  00:40      0.0353       0.401       0.060
  JCT-554              JUNCTION      2.28    33.61     0  00:40      0.0216       0.422       0.279
  JCT-556              JUNCTION      4.78     4.78     0  00:35      0.0487      0.0487      -1.895
  JCT-558              JUNCTION      0.00    22.53     0  00:44           0        0.42       0.393
  JCT-564              JUNCTION      3.99     3.99     0  00:35      0.0345      0.0345      -2.126
  JCT-568              JUNCTION      0.00    23.34     0  00:45           0       0.454       0.165
  JCT-570              JUNCTION      3.06    21.05     0  00:46      0.0336       0.332      -0.009
  JCT-572              JUNCTION     10.66    10.66     0  00:35       0.112       0.112      -0.386
  JCT-574              JUNCTION      3.29    22.09     0  00:46      0.0361       0.368       0.006
  JCT-575              JUNCTION      0.00    19.84     0  00:48           0       0.287       0.145
  JCT-576              JUNCTION      8.73    18.48     0  00:35      0.0877         0.2       0.269
  JCT-577              JUNCTION      1.87     1.87     0  00:35      0.0176      0.0176       0.000
  JCT-580              JUNCTION      6.53     6.53     0  00:35      0.0571      0.0571      -0.656
  JCT-584              JUNCTION      0.00    17.03     0  00:35           0       0.174       0.428
  JCT-588              JUNCTION      0.00    21.28     0  00:35           0       0.231       0.265
  JCT-592              JUNCTION      3.62    23.07     0  00:36      0.0372       0.268       0.180
  JCT-596              JUNCTION     11.39    11.39     0  00:35       0.116       0.116      -0.321
  JCT-600              JUNCTION      6.22     6.22     0  00:35      0.0573      0.0573      -0.851
  JCT-604              JUNCTION      0.42     0.42     0  00:35     0.00129     0.00129      -0.351
  JCT-608              JUNCTION      0.27     0.53     0  00:35     0.00102     0.00231      -0.607
  JCT-612              JUNCTION      0.60     1.03     0  00:40     0.00353     0.00586       0.760
  JCT-616              JUNCTION      2.20     3.12     0  00:40      0.0195      0.0253      -0.221
  JCT-620              JUNCTION      2.88     5.36     0  00:40      0.0256       0.051      -0.055
  JCT-624              JUNCTION      3.68     7.78     0  00:42      0.0248      0.0759      -0.027
  JCT-628              JUNCTION      2.66     9.31     0  00:44      0.0238      0.0997      -0.207
  JCT-632              JUNCTION      2.55    10.54     0  00:45      0.0205        0.12      -0.216
  JCT-636              JUNCTION      0.00    10.24     0  00:47           0       0.121       0.518
  JCT-638              JUNCTION      5.50     5.50     0  00:35      0.0471      0.0471      -3.026
  JCT-640              JUNCTION     13.39    18.74     0  00:35       0.149       0.238      -0.292
  JCT-644              JUNCTION      7.39    22.23     0  00:40       0.133       0.372       0.323
  JCT-648              JUNCTION      6.63     6.63     0  00:40      0.0814      0.0814      -5.354
  JCT-650              JUNCTION      0.00    10.98     0  00:40           0       0.509      -0.073
  JCT-651              JUNCTION      0.00     6.57     0  00:41           0        0.28       0.022
  JCT-652              JUNCTION      0.00     3.62     0  00:39           0       0.122       0.005
  JCT-656              JUNCTION      0.00     6.37     0  00:37           0        0.16      -0.001
  JCT-658              JUNCTION      0.00    28.26     0  00:41           0       0.963       0.001
  JCT-660              JUNCTION      0.00    34.72     0  00:41           0        1.16       0.524
  JCT-664              JUNCTION      0.00     3.18     0  00:36           0       0.084       0.002
  JCT-668              JUNCTION      0.00    10.95     0  00:37           0       0.293       0.001
  JCT-670              JUNCTION      0.00     3.18     0  00:37           0      0.0875      -0.037
  JCT-672              JUNCTION      0.00     6.40     0  00:38           0       0.201       0.016
  JCT-673              JUNCTION      0.00     3.31     0  00:42           0       0.127      -0.011
  JCT-674              JUNCTION      0.00     7.36     0  00:39           0       0.362      -0.031
  JCT-677              JUNCTION      0.00     5.35     0  00:37           0       0.202       1.712
  JCT-678              JUNCTION      9.64    15.98     0  00:35       0.079        0.28      -0.013
  JCT-682              JUNCTION      4.27    19.28     0  00:35      0.0318       0.312      -0.015
  JCT-686              JUNCTION      3.22    20.68     0  00:36      0.0641       0.376       0.038
  JCT-690              JUNCTION      0.00    26.84     0  00:37           0       0.658       0.004
  JCT-692              JUNCTION      0.00    34.01     0  00:39           0        1.02       0.663
  JCT-694              JUNCTION      0.00    36.43     0  00:41           0        1.12       1.637
  OFALL-10             OUTFALL       0.00     3.98     0  02:44           0       0.598       0.000
  OFALL-20             OUTFALL       0.00     3.61     0  00:48           0       0.107       0.000
  OFALL-26             OUTFALL       2.33     6.01     0  00:45      0.0363       0.193       0.000
  STOR-10              STORAGE      14.31   108.25     0  00:40       0.201        4.11       3.414
  STOR-12              STORAGE       0.00    17.75     0  00:38           0       0.237      -0.120
  STOR-14              STORAGE       4.06    40.18     0  00:40       0.043       0.484       0.307
  STOR-16              STORAGE       0.00    36.52     0  00:40           0       0.534       0.275
  STOR-18              STORAGE       0.00     9.17     0  00:35           0       0.114      -0.025
  STOR-20              STORAGE       0.00    12.45     0  00:40           0       0.161       0.048
  STOR-22              STORAGE       0.00    23.71     0  00:40           0       0.235      -0.575
  STOR-24              STORAGE       0.00    13.79     0  00:36           0        0.18      -0.245
  STOR-26              STORAGE       0.00    10.60     0  00:36           0       0.129      -0.051
  STOR-28              STORAGE       0.00    18.72     0  00:38           0       0.201      -0.003
  STOR-30              STORAGE       0.00    14.52     0  00:36           0       0.162      -0.056
  STOR-32              STORAGE       0.00    17.06     0  00:40           0       0.237      -0.122
  STOR-34              STORAGE       0.00    11.09     0  00:36           0       0.133       0.160
  STOR-36              STORAGE       0.00     5.12     0  00:35           0      0.0486       3.220
  STOR-40              STORAGE       0.00    95.47     0  00:42           0       0.879       0.640
  STOR-42              STORAGE       1.29    27.23     0  00:40      0.0141       0.313       1.055
  STOR-44              STORAGE       1.97    38.39     0  00:40       0.029       0.401       1.055
  STOR-46              STORAGE       0.00    52.76     0  00:43           0       0.632       0.048
  STOR-48              STORAGE       0.00    33.45     0  00:41           0       0.421      -0.379
  STOR-50              STORAGE       0.00    23.26     0  00:46           0       0.453       0.017
  STOR-52              STORAGE       0.00    21.98     0  00:48           0       0.368      -0.002
  STOR-54              STORAGE       0.00    22.77     0  00:37           0       0.274      -0.418
  STOR-56              STORAGE       0.00    16.45     0  00:36           0       0.199      -0.431
  STOR-58              STORAGE       0.00    58.57     0  00:41           0       0.639       0.016
  STOR-60              STORAGE       0.00    28.88     0  00:40           0       0.414      -0.049
  STOR-70              STORAGE       0.00    23.92     0  00:50           0       0.408       0.415
  
  
  **********************
  Node Surcharge Summary
  **********************
  
  Surcharging occurs when water rises above the top of the highest conduit.
  ---------------------------------------------------------------------
                                               Max. Height   Min. Depth
                                   Hours       Above Crown    Below Rim
  Node                 Type      Surcharged           Feet         Feet
  ---------------------------------------------------------------------
  JCT-636              JUNCTION        0.50          0.000        0.000
  
  
  *********************
  Node Flooding Summary
  *********************
  
  Flooding refers to all water that overflows a node, whether it ponds or not.
  --------------------------------------------------------------------------
                                                             Total   Maximum
                                 Maximum   Time of Max       Flood    Ponded
                        Hours       Rate    Occurrence      Volume     Depth
  Node                 Flooded       CFS   days hr:min    10^6 gal      Feet
  --------------------------------------------------------------------------
  JCT-636                 0.49      8.24      0  00:47       0.060     0.000
  STOR-14                 0.78     36.49      0  00:40       0.307     0.000
  STOR-16                 0.93     32.84      0  00:40       0.320     0.000
  STOR-40                 0.68     92.71      0  00:42       0.690     0.000
  STOR-42                 0.72     24.54      0  00:40       0.205     0.000
  STOR-44                 0.59     34.71      0  00:40       0.202     0.000
  STOR-46                 0.89     49.08      0  00:43       0.465     0.000
  STOR-70                 0.87     20.24      0  00:50       0.250     0.000
  
  
  **********************
  Storage Volume Summary
  **********************
  
  ------------------------------------------------------------------------------------------------
                         Average    Avg   Evap  Exfil     Maximum    Max    Time of Max    Maximum
                          Volume   Pcnt   Pcnt   Pcnt      Volume   Pcnt     Occurrence    Outflow
  Storage Unit          1000 ftł   Full   Loss   Loss    1000 ftł   Full    days hr:min        CFS
  ------------------------------------------------------------------------------------------------
  STOR-10                407.200   49.1    0.0    0.0     490.993   59.2       0  02:44       5.35
  STOR-12                  0.010   14.5    0.0    0.0       0.055   81.8       0  00:39      17.74
  STOR-14                  0.016   27.6    0.0    0.0       0.057  100.0       0  00:33       3.68
  STOR-16                  0.020   34.5    0.0    0.0       0.057  100.0       0  00:34       3.68
  STOR-18                  0.005    9.7    0.0    0.0       0.043   75.7       0  00:36       9.11
  STOR-20                  0.006   10.9    0.0    0.0       0.044   77.0       0  00:41      12.44
  STOR-22                  0.007   11.6    0.0    0.0       0.045   79.7       0  00:40      23.66
  STOR-24                  0.007   12.7    0.0    0.0       0.044   77.4       0  00:36      13.78
  STOR-26                  0.006   10.3    0.0    0.0       0.043   76.2       0  00:36      10.56
  STOR-28                  0.009   11.1    0.0    0.0       0.070   85.1       0  00:39      18.63
  STOR-30                  0.008   11.3    0.0    0.0       0.056   81.3       0  00:36      14.42
  STOR-32                  0.008   14.8    0.0    0.0       0.044   78.2       0  00:40      17.05
  STOR-34                  0.006   11.0    0.0    0.0       0.043   76.0       0  00:37      10.59
  STOR-36                  0.002   12.4    0.0    0.0       0.013   70.7       0  00:48       1.61
  STOR-40                  0.011   35.7    0.0    0.0       0.031  100.0       0  00:34       9.90
  STOR-42                  0.007   23.0    0.0    0.0       0.031  100.0       0  00:36       2.68
  STOR-44                  0.018   31.3    0.0    0.0       0.057  100.0       0  00:39       3.68
  STOR-46                  0.015   26.4    0.0    0.0       0.057  100.0       0  00:34       3.68
  STOR-48                  0.010   16.9    0.0    0.0       0.047   82.4       0  00:42      33.40
  STOR-50                  0.012   21.0    0.0    0.0       0.045   78.9       0  00:47      23.26
  STOR-52                  0.008   17.4    0.0    0.0       0.032   71.6       0  00:48      21.97
  STOR-54                  0.007   16.3    0.0    0.0       0.032   72.0       0  00:37      22.76
  STOR-56                  0.006   13.2    0.0    0.0       0.031   70.4       0  00:36      16.42
  STOR-58                  0.011   18.6    0.0    0.0       0.047   82.6       0  00:41      58.57
  STOR-60                  0.010   18.2    0.0    0.0       0.045   79.0       0  00:40      28.86
  STOR-70                  0.014   25.2    0.0    0.0       0.057  100.0       0  00:42       3.68
  
  
  ***********************
  Outfall Loading Summary
  ***********************
  
  -----------------------------------------------------------
                         Flow       Avg       Max       Total
                         Freq      Flow      Flow      Volume
  Outfall Node           Pcnt       CFS       CFS    10^6 gal
  -----------------------------------------------------------
  OFALL-10             100.00      3.70      3.98       0.598
  OFALL-20              85.40      0.77      3.61       0.107
  OFALL-26              61.94      1.93      6.01       0.193
  -----------------------------------------------------------
  System                82.45      6.41     12.63       0.898
  
  
  ********************
  Link Flow Summary
  ********************
  
  -----------------------------------------------------------------------------
                                 Maximum  Time of Max   Maximum    Max/    Max/
                                  |Flow|   Occurrence   |Veloc|    Full    Full
  Link                 Type          CFS  days hr:min    ft/sec    Flow   Depth
  -----------------------------------------------------------------------------
  CDT-100              CHANNEL      4.21     0  00:35      2.09    0.01    0.24
  CDT-104              CHANNEL      4.04     0  00:35      1.34    0.01    0.28
  CDT-108              CHANNEL      7.09     0  00:35      2.07    0.03    0.32
  CDT-112              CHANNEL     10.54     0  00:35      2.58    0.03    0.35
  CDT-116              CHANNEL      3.13     0  00:35      1.56    0.01    0.29
  CDT-120              CHANNEL     12.88     0  00:36      2.54    0.04    0.37
  CDT-124              CHANNEL     15.41     0  00:37      1.86    0.05    0.69
  CDT-125              CHANNEL     21.89     0  00:41      1.66    0.08    0.72
  CDT-128              CHANNEL      4.34     0  00:35      2.77    0.01    0.31
  CDT-132              CHANNEL     18.80     0  00:40      2.69    0.07    0.42
  CDT-136              CHANNEL      4.07     0  00:35      2.32    0.01    0.30
  CDT-140              CHANNEL     15.73     0  00:39      2.77    0.05    0.39
  CDT-144              CHANNEL     13.93     0  00:37      2.49    0.06    0.39
  CDT-148              CHANNEL      4.27     0  00:35      2.93    0.01    0.29
  CDT-152              CHANNEL     10.98     0  00:36      2.02    0.04    0.39
  CDT-156              CHANNEL      4.59     0  00:35      2.79    0.01    0.27
  CDT-160              CHANNEL      7.33     0  00:35      2.05    0.02    0.33
  CDT-164              CHANNEL      4.81     0  00:36      1.82    0.02    0.29
  CDT-168              CHANNEL      7.93     0  00:35      3.28    0.01    0.28
  CDT-172              CHANNEL      4.81     0  00:35      1.48    0.02    0.29
  CDT-176              CHANNEL     11.80     0  00:36      3.51    0.03    0.32
  CDT-180              CHANNEL      1.90     0  00:35      1.50    0.01    0.26
  CDT-184              CHANNEL      2.08     0  00:35      0.60    0.01    0.30
  CDT-188              CHANNEL      4.18     0  00:35      0.66    0.04    0.38
  CDT-192              CHANNEL     13.23     0  00:36      3.37    0.03    0.34
  CDT-196              CHANNEL     16.98     0  00:37      3.76    0.04    0.36
  CDT-200              CHANNEL      2.58     0  00:35      1.72    0.01    0.28
  CDT-204              CHANNEL     18.47     0  00:38      3.75    0.04    0.37
  CDT-208              CHANNEL     23.17     0  00:39      4.40    0.05    0.38
  CDT-212              CHANNEL      3.10     0  00:35      2.05    0.01    0.28
  CDT-216              CHANNEL      3.69     0  00:35      1.95    0.01    0.29
  CDT-220              CHANNEL     25.08     0  00:40      4.43    0.05    0.39
  CDT-224              CHANNEL     28.88     0  00:40      4.85    0.06    0.40
  CDT-226              CHANNEL     25.62     0  00:40      4.84    0.05    0.38
  CDT-228              CHANNEL     26.48     0  00:40      2.45    0.06    0.70
  CDT-236              CHANNEL      5.35     0  00:35      2.28    0.01    0.25
  CDT-240              CHANNEL      5.06     0  00:35      1.73    0.02    0.30
  CDT-244              CHANNEL      8.70     0  00:35      2.30    0.03    0.34
  CDT-248              CHANNEL      3.29     0  00:35      1.95    0.01    0.27
  CDT-252              CHANNEL      5.86     0  00:35      2.10    0.01    0.31
  CDT-256              CHANNEL     10.95     0  00:37      2.30    0.04    0.37
  CDT-260              CHANNEL     15.55     0  00:37      2.57    0.05    0.40
  CDT-264              CHANNEL     17.75     0  00:38      2.70    0.07    0.41
  CDT-266              CHANNEL     14.13     0  00:39      2.31    0.04    0.40
  CDT-268              CHANNEL     12.38     0  00:36      2.26    0.03    0.38
  CDT-270              CHANNEL      6.54     0  00:35      1.96    0.02    0.29
  CDT-272              CHANNEL     25.68     0  00:40      2.73    0.09    0.48
  CDT-276              CHANNEL      5.78     0  00:35      2.30    0.01    0.27
  CDT-278              CHANNEL     10.78     0  00:35      2.84    0.03    0.31
  CDT-280              CHANNEL     15.67     0  00:35      2.49    0.03    0.40
  CDT-284              CHANNEL     37.12     0  00:39      1.83    0.13    0.75
  CDT-286              CHANNEL      5.28     0  00:35      3.40    0.01    0.25
  CDT-292              CHANNEL     11.02     0  00:35      2.39    0.04    0.34
  CDT-296              CHANNEL     12.45     0  00:40      2.43    0.05    0.34
  CDT-298              CHANNEL      9.24     0  00:41      1.77    0.03    0.35
  CDT-300              CHANNEL      9.17     0  00:35      2.30    0.03    0.31
  CDT-302              CHANNEL      5.94     0  00:36      1.58    0.02    0.30
  CDT-304              CHANNEL      9.37     0  00:35      2.57    0.03    0.31
  CDT-308              CHANNEL     13.86     0  00:36      2.48    0.04    0.36
  CDT-312              CHANNEL     22.80     0  00:38      3.45    0.07    0.39
  CDT-316              CHANNEL     23.71     0  00:40      3.40    0.07    0.39
  CDT-318              CHANNEL     20.40     0  00:40      2.88    0.07    0.40
  CDT-320              CHANNEL     21.74     0  00:41      2.57    0.07    0.43
  CDT-324              CHANNEL      9.12     0  00:35      2.32    0.03    0.31
  CDT-328              CHANNEL     13.79     0  00:36      3.00    0.04    0.33
  CDT-330              CHANNEL     10.57     0  00:36      2.13    0.04    0.38
  CDT-332              CHANNEL     30.91     0  00:41      3.34    0.10    0.44
  CDT-336              CHANNEL     33.12     0  00:42      3.30    0.09    0.46
  CDT-340              CHANNEL      5.08     0  00:35      1.99    0.01    0.26
  CDT-344              CHANNEL      9.23     0  00:36      2.16    0.02    0.35
  CDT-348              CHANNEL     26.55     0  00:37      4.17    0.07    0.41
  CDT-352              CHANNEL     28.08     0  00:38      4.06    0.06    0.44
  CDT-356              CHANNEL      5.07     0  00:35      1.47    0.02    0.29
  CDT-360              CHANNEL     10.03     0  00:36      2.19    0.04    0.33
  CDT-364              CHANNEL      3.87     0  00:35      1.53    0.01    0.28
  CDT-368              CHANNEL     13.11     0  00:36      3.30    0.03    0.34
  CDT-372              CHANNEL     17.98     0  00:37      3.21    0.04    0.39
  CDT-376              CHANNEL      6.20     0  00:35      1.97    0.02    0.30
  CDT-380              CHANNEL     58.57     0  00:41      6.05    0.11    0.48
  CDT-382              CHANNEL     55.25     0  00:41      5.71    0.11    0.49
  CDT-384              CHANNEL     60.06     0  00:41      2.79    0.12    0.75
  CDT-395              CONDUIT      5.84     0  00:57      1.83    0.05    0.86
  CDT-400              CHANNEL      3.92     0  00:35      1.71    0.01    0.25
  CDT-404              CHANNEL      6.81     0  00:35      1.62    0.02    0.32
  CDT-408              CHANNEL      8.94     0  00:35      2.15    0.02    0.32
  CDT-412              CHANNEL     14.52     0  00:36      2.62    0.05    0.35
  CDT-414              CHANNEL     10.76     0  00:36      2.42    0.03    0.33
  CDT-416              CHANNEL     11.23     0  00:37      1.99    0.04    0.36
  CDT-420              CHANNEL     31.04     0  00:39      4.34    0.07    0.40
  CDT-424              CHANNEL     36.47     0  00:40      2.86    0.07    0.70
  CDT-428              CHANNEL      2.27     0  00:35      1.74    0.01    0.29
  CDT-432              CHANNEL      7.61     0  00:35      2.20    0.02    0.31
  CDT-436              CHANNEL     10.60     0  00:36      2.49    0.03    0.32
  CDT-438              CHANNEL      7.38     0  00:36      1.88    0.02    0.31
  CDT-440              CHANNEL     13.52     0  00:37      2.43    0.04    0.36
  CDT-444              CHANNEL      7.26     0  00:35      1.86    0.02    0.32
  CDT-446              CHANNEL     18.72     0  00:38      2.96    0.06    0.38
  CDT-448              CHANNEL     14.53     0  00:39      2.54    0.05    0.36
  CDT-456              CHANNEL      4.30     0  00:35      1.41    0.01    0.28
  CDT-460              CHANNEL      9.36     0  00:35      2.64    0.03    0.32
  CDT-464              CHANNEL     21.02     0  00:40      3.26    0.05    0.38
  CDT-468              CHANNEL      4.60     0  00:35      1.85    0.01    0.26
  CDT-472              CHANNEL      8.02     0  00:35      2.85    0.02    0.27
  CDT-476              CHANNEL     11.09     0  00:36      3.21    0.03    0.29
  CDT-478              CHANNEL      7.41     0  00:37      1.63    0.02    0.33
  CDT-480              CHANNEL     17.87     0  00:39      2.35    0.06    0.45
  CDT-482              CHANNEL     46.31     0  00:42      2.58    0.16    0.60
  CDT-484              CHANNEL     46.78     0  00:42      2.81    0.55    0.58
  CDT-486              CONDUIT      3.18     0  00:37      4.14    0.16    0.29
  CDT-488              CHANNEL      4.67     0  00:35      2.32    0.01    0.24
  CDT-490              CONDUIT      6.40     0  00:39      7.40    0.22    0.38
  CDT-492              CHANNEL      7.41     0  00:35      2.22    0.02    0.35
  CDT-495              CONDUIT      7.36     0  00:53      5.21    0.09    0.23
  CDT-496              CHANNEL     50.96     0  00:42      5.22    0.11    0.45
  CDT-500              CHANNEL     52.76     0  00:43      3.08    0.09    0.72
  CDT-504              CHANNEL      9.21     0  00:35      2.10    0.03    0.32
  CDT-508              CHANNEL     14.38     0  00:37      2.57    0.04    0.36
  CDT-512              CHANNEL     15.54     0  00:38      2.61    0.06    0.37
  CDT-514              CONDUIT      3.61     0  00:48      6.58    0.06    0.17
  CDT-516              CHANNEL     17.06     0  00:40      2.97    0.05    0.36
  CDT-518              CHANNEL     13.83     0  00:40      1.86    0.04    0.40
  CDT-520              CHANNEL      4.44     0  00:35      1.49    0.01    0.28
  CDT-524              CHANNEL      9.32     0  00:36      2.09    0.04    0.32
  CDT-526              CHANNEL      3.22     0  00:35      1.86    0.01    0.25
  CDT-528              CHANNEL      7.35     0  00:35      2.35    0.02    0.29
  CDT-530              CHANNEL      4.83     0  00:36      2.35    0.01    0.27
  CDT-532              CHANNEL     15.25     0  00:36      2.34    0.04    0.39
  CDT-534              CHANNEL      6.52     0  00:40      1.84    0.02    0.33
  CDT-535              CHANNEL     16.04     0  00:41      2.31    0.06    0.43
  CDT-536              CHANNEL     30.75     0  00:40      3.08    0.11    0.46
  CDT-540              CHANNEL     32.41     0  00:41      3.22    0.11    0.46
  CDT-542              CHANNEL     33.45     0  00:41      3.21    0.11    0.47
  CDT-543              CHANNEL     30.08     0  00:42      2.51    0.12    0.50
  CDT-544              CHANNEL      4.54     0  00:35      1.94    0.01    0.32
  CDT-545              CHANNEL     22.19     0  00:46      3.43    0.07    0.41
  CDT-546              CHANNEL     20.34     0  00:45      2.49    0.10    0.45
  CDT-548              CHANNEL      3.80     0  00:35      1.83    0.01    0.28
  CDT-550              CHANNEL     23.26     0  00:46      4.29    0.05    0.38
  CDT-551              CHANNEL     20.01     0  00:47      4.11    0.04    0.37
  CDT-552              CHANNEL      9.95     0  00:35      2.56    0.02    0.31
  CDT-553              CHANNEL     16.45     0  00:36      3.61    0.04    0.33
  CDT-554              CHANNEL     21.02     0  00:47      4.43    0.04    0.37
  CDT-555              CHANNEL     21.98     0  00:48      4.76    0.04    0.36
  CDT-556              CHANNEL     13.76     0  00:36      2.86    0.03    0.36
  CDT-557              CHANNEL     19.29     0  00:48      3.85    0.03    0.37
  CDT-558              CHANNEL     19.84     0  00:36      2.32    0.06    0.49
  CDT-559              CHANNEL      1.79     0  00:35      2.11    0.00    0.27
  CDT-560              CHANNEL      6.08     0  00:35      2.01    0.01    0.28
  CDT-561              CONDUIT      3.70     0  00:56      1.17    0.04    0.40
  CDT-562              CHANNEL     20.08     0  00:49      3.58    0.05    0.39
  CDT-563              CHANNEL      0.89     0  00:35      2.17    0.00    0.24
  CDT-564              CHANNEL     15.72     0  00:36      3.29    0.04    0.33
  CDT-565              CHANNEL     19.82     0  00:49      3.46    0.06    0.39
  CDT-566              CHANNEL     20.36     0  00:50      2.41    0.06    0.70
  CDT-568              CHANNEL     20.50     0  00:36      3.80    0.05    0.35
  CDT-569              CHANNEL     22.77     0  00:37      4.04    0.05    0.36
  CDT-570              CHANNEL     20.06     0  00:37      3.37    0.05    0.48
  CDT-574              CHANNEL     46.13     0  00:35      1.72    0.18    0.82
  CDT-576              CHANNEL     10.95     0  00:35      2.87    0.03    0.31
  CDT-578              CONDUIT      5.35     0  00:37      2.59    0.09    0.87
  CDT-580              CHANNEL      5.86     0  00:35      2.29    0.01    0.29
  CDT-584              CONDUIT      0.34     0  00:36      2.32    0.01    0.15
  CDT-588              CONDUIT      0.47     0  00:36      9.52    0.00    0.16
  CDT-592              CONDUIT      0.96     0  00:40      1.47    0.01    0.24
  CDT-596              CONDUIT      2.76     0  00:42      2.05    0.04    0.34
  CDT-600              CONDUIT      5.06     0  00:43      1.91    0.08    0.47
  CDT-604              CONDUIT      7.37     0  00:45      1.71    0.21    0.61
  CDT-608              CONDUIT      8.91     0  00:46      1.61    0.32    0.68
  CDT-612              CONDUIT     10.24     0  00:47      1.17    0.40    0.85
  CDT-614              CHANNEL      5.12     0  00:35      3.04    0.01    0.44
  CDT-620              CONDUIT      6.12     0  00:40      1.86    0.03    0.59
  CDT-625              CONDUIT      3.62     0  00:40      3.94    0.24    0.33
  CDT-628              CONDUIT     10.97     0  00:41      4.25    0.14    0.28
  CDT-630              CONDUIT      6.57     0  00:41      8.38    0.06    0.56
  CDT-634              CONDUIT      6.37     0  00:37      6.82    0.25    0.34
  CDT-635              CONDUIT     28.26     0  00:41      6.12    0.24    0.33
  CDT-636              CONDUIT     34.71     0  00:42      9.34    0.13    0.38
  CDT-642              CONDUIT      3.18     0  00:37      4.71    0.16    0.27
  CDT-646              CONDUIT     10.94     0  00:38      7.79    0.14    0.25
  CDT-648              CONDUIT     21.89     0  00:41      6.75    0.20    0.30
  CDT-650              CONDUIT     15.29     0  00:35      5.04    0.60    0.60
  CDT-652              CONDUIT     18.60     0  00:36      5.75    0.74    0.63
  CDT-654              CONDUIT     20.36     0  00:37      5.69    0.53    0.50
  CDT-658              CONDUIT      3.31     0  00:42      5.17    0.15    0.30
  CDT-662              CONDUIT     26.74     0  00:38      6.06    0.46    0.47
  CDT-664              CONDUIT     33.77     0  00:41      8.16    0.20    0.33
  CDT-666              CONDUIT     36.43     0  00:41      6.16    0.30    0.79
  OLET-101             DUMMY        3.62     0  00:39
  OLET-102             DUMMY        3.68     0  00:34
  OLET-103             DUMMY        3.68     0  00:33
  OLET-104             DUMMY        3.17     0  00:36
  OLET-105             DUMMY        3.20     0  00:41
  OLET-106             DUMMY        3.26     0  00:40
  OLET-107             DUMMY        3.21     0  00:36
  OLET-108             DUMMY        3.18     0  00:36
  OLET-109             DUMMY        4.10     0  00:39
  OLET-110             DUMMY        3.67     0  00:36
  OLET-111             DUMMY        3.23     0  00:40
  OLET-112             DUMMY        3.18     0  00:37
  OLET-113             DUMMY        3.31     0  00:42
  OLET-114             DUMMY        3.68     0  00:34
  OLET-115             DUMMY        3.68     0  00:39
  OLET-116             DUMMY        3.25     0  00:47
  OLET-117             DUMMY        2.68     0  00:48
  OLET-118             DUMMY        2.69     0  00:37
  OLET-119             DUMMY        2.66     0  00:36
  OLET-120             DUMMY        3.32     0  00:41
  OLET-121             DUMMY        3.25     0  00:40
  OLET-122             DUMMY        2.68     0  00:34
  OLET-123             DUMMY        2.68     0  00:36
  OLET-150             DUMMY        3.98     0  02:44
  OLET-160             DUMMY        3.68     0  00:42
  OLET-161             DUMMY        2.00     0  00:41
  OLET-162             DUMMY        1.61     0  00:48
  
  
  ***************************
  Flow Classification Summary
  ***************************
  
  -------------------------------------------------------------------------------------
                      Adjusted    ---------- Fraction of Time in Flow Class ---------- 
                       /Actual         Up    Down  Sub   Sup   Up    Down  Norm  Inlet 
  Conduit               Length    Dry  Dry   Dry   Crit  Crit  Crit  Crit  Ltd   Ctrl  
  -------------------------------------------------------------------------------------
  CDT-100                 1.00   0.01  0.00  0.00  0.97  0.02  0.00  0.00  0.90  0.00
  CDT-104                 3.13   0.01  0.00  0.00  0.98  0.00  0.00  0.00  0.98  0.00
  CDT-108                 1.00   0.01  0.00  0.00  0.99  0.00  0.00  0.00  0.98  0.00
  CDT-112                 1.17   0.01  0.00  0.00  0.93  0.05  0.00  0.00  0.95  0.00
  CDT-116                 1.00   0.01  0.00  0.00  0.97  0.02  0.00  0.00  0.96  0.00
  CDT-120                 1.00   0.01  0.01  0.00  0.98  0.00  0.00  0.00  0.97  0.00
  CDT-124                 1.00   0.01  0.00  0.00  0.36  0.00  0.00  0.63  0.36  0.00
  CDT-125                 1.00   0.02  0.00  0.00  0.36  0.00  0.00  0.62  0.35  0.00
  CDT-128                 1.00   0.01  0.00  0.00  0.95  0.03  0.00  0.00  0.95  0.00
  CDT-132                 2.89   0.02  0.00  0.00  0.98  0.00  0.00  0.00  0.93  0.00
  CDT-136                 1.00   0.01  0.00  0.00  0.96  0.03  0.00  0.00  0.96  0.00
  CDT-140                 1.18   0.01  0.00  0.00  0.95  0.04  0.00  0.00  0.96  0.00
  CDT-144                 1.00   0.01  0.01  0.00  0.98  0.00  0.00  0.00  0.02  0.00
  CDT-148                 1.00   0.01  0.00  0.00  0.95  0.03  0.00  0.00  0.96  0.00
  CDT-152                 3.21   0.02  0.00  0.00  0.98  0.00  0.00  0.00  0.94  0.00
  CDT-156                 1.00   0.01  0.00  0.00  0.95  0.03  0.00  0.00  0.96  0.00
  CDT-160                 1.00   0.01  0.00  0.00  0.98  0.01  0.00  0.00  0.96  0.00
  CDT-164                 1.00   0.01  0.01  0.00  0.98  0.00  0.00  0.00  0.98  0.00
  CDT-168                 1.00   0.01  0.00  0.00  0.65  0.33  0.00  0.00  0.95  0.00
  CDT-172                 1.00   0.01  0.00  0.00  0.97  0.01  0.00  0.00  0.95  0.00
  CDT-176                 4.19   0.02  0.00  0.00  0.29  0.69  0.00  0.00  0.93  0.00
  CDT-180                 1.00   0.01  0.00  0.00  0.97  0.02  0.00  0.00  0.96  0.00
  CDT-184                 1.00   0.01  0.00  0.00  0.99  0.00  0.00  0.00  0.98  0.00
  CDT-188                 1.00   0.01  0.01  0.00  0.97  0.00  0.00  0.00  0.00  0.00
  CDT-192                 1.06   0.02  0.00  0.00  0.60  0.38  0.00  0.00  0.94  0.00
  CDT-196                 4.63   0.02  0.01  0.00  0.41  0.56  0.00  0.00  0.93  0.00
  CDT-200                 1.01   0.01  0.00  0.00  0.96  0.03  0.00  0.00  0.95  0.00
  CDT-204                 1.00   0.01  0.00  0.00  0.27  0.72  0.00  0.00  0.97  0.00
  CDT-208                 1.00   0.01  0.00  0.00  0.10  0.88  0.00  0.00  0.90  0.00
  CDT-212                 1.00   0.01  0.00  0.00  0.96  0.03  0.00  0.00  0.96  0.00
  CDT-216                 1.00   0.01  0.00  0.00  0.96  0.03  0.00  0.00  0.96  0.00
  CDT-220                 5.02   0.01  0.01  0.00  0.15  0.83  0.00  0.00  0.98  0.00
  CDT-224                 1.80   0.01  0.00  0.00  0.00  0.00  0.00  0.99  0.00  0.00
  CDT-226                 1.00   0.01  0.80  0.00  0.01  0.18  0.00  0.00  0.93  0.00
  CDT-228                 1.00   0.01  0.00  0.00  0.24  0.01  0.00  0.74  0.25  0.00
  CDT-236                 1.18   0.01  0.00  0.00  0.85  0.13  0.00  0.00  0.95  0.00
  CDT-240                 1.00   0.01  0.00  0.00  0.98  0.00  0.00  0.00  0.98  0.00
  CDT-244                 1.00   0.01  0.00  0.00  0.97  0.02  0.00  0.00  0.93  0.00
  CDT-248                 1.00   0.01  0.00  0.00  0.96  0.02  0.00  0.00  0.96  0.00
  CDT-252                 1.00   0.01  0.00  0.00  0.96  0.03  0.00  0.00  0.95  0.00
  CDT-256                 3.38   0.02  0.00  0.00  0.98  0.00  0.00  0.00  0.97  0.00
  CDT-260                 1.00   0.01  0.00  0.00  0.98  0.00  0.00  0.00  0.98  0.00
  CDT-264                 1.19   0.01  0.00  0.00  0.00  0.00  0.00  0.99  0.00  0.00
  CDT-266                 9.01   0.02  0.63  0.00  0.14  0.00  0.21  0.00  0.11  0.00
  CDT-268                 1.00   0.01  0.00  0.00  0.93  0.06  0.00  0.00  0.94  0.00
  CDT-270                 1.00   0.01  0.00  0.00  0.99  0.00  0.00  0.00  0.96  0.00
  CDT-272                 2.71   0.02  0.00  0.00  0.98  0.00  0.00  0.00  0.97  0.00
  CDT-276                 1.00   0.01  0.00  0.00  0.96  0.03  0.00  0.00  0.96  0.00
  CDT-278                 1.00   0.01  0.00  0.00  0.81  0.18  0.00  0.00  0.95  0.00
  CDT-280                 1.24   0.02  0.00  0.00  0.94  0.04  0.00  0.00  0.95  0.00
  CDT-284                 1.00   0.02  0.00  0.00  0.28  0.00  0.00  0.70  0.28  0.00
  CDT-286                 1.00   0.01  0.00  0.00  0.67  0.32  0.00  0.00  0.96  0.00
  CDT-292                 1.00   0.01  0.00  0.00  0.95  0.04  0.00  0.00  0.90  0.00
  CDT-296                 1.00   0.02  0.00  0.00  0.00  0.00  0.00  0.98  0.00  0.00
  CDT-298                 3.38   0.03  0.67  0.00  0.11  0.00  0.19  0.00  0.11  0.00
  CDT-300                 1.00   0.01  0.00  0.00  0.00  0.00  0.00  0.99  0.00  0.00
  CDT-302                 3.49   0.02  0.79  0.00  0.08  0.00  0.11  0.00  0.08  0.00
  CDT-304                 1.00   0.01  0.00  0.00  0.90  0.08  0.00  0.00  0.92  0.00
  CDT-308                 3.81   0.02  0.00  0.00  0.92  0.06  0.00  0.00  0.91  0.00
  CDT-312                 1.00   0.03  0.00  0.00  0.87  0.10  0.00  0.00  0.87  0.00
  CDT-316                 1.00   0.04  0.00  0.00  0.00  0.03  0.00  0.94  0.02  0.00
  CDT-318                 3.90   0.02  0.85  0.00  0.10  0.00  0.03  0.00  0.08  0.00
  CDT-320                 3.61   0.02  0.00  0.00  0.95  0.02  0.00  0.00  0.93  0.00
  CDT-324                 1.00   0.01  0.00  0.00  0.95  0.04  0.00  0.00  0.94  0.00
  CDT-328                 1.00   0.01  0.00  0.00  0.00  0.00  0.00  0.99  0.00  0.00
  CDT-330                 3.59   0.03  0.84  0.00  0.12  0.00  0.01  0.00  0.08  0.00
  CDT-332                 1.64   0.01  0.02  0.00  0.92  0.05  0.00  0.00  0.90  0.00
  CDT-336                 1.82   0.01  0.00  0.00  0.93  0.06  0.00  0.00  0.95  0.00
  CDT-340                 1.00   0.01  0.00  0.00  0.99  0.00  0.00  0.00  0.96  0.00
  CDT-344                 1.00   0.01  0.00  0.00  0.96  0.03  0.00  0.00  0.95  0.00
  CDT-348                 1.32   0.01  0.01  0.00  0.30  0.68  0.00  0.00  0.03  0.00
  CDT-352                 1.00   0.01  0.00  0.00  0.09  0.89  0.00  0.00  0.92  0.00
  CDT-356                 1.00   0.01  0.00  0.00  0.99  0.00  0.00  0.00  0.96  0.00
  CDT-360                 1.00   0.01  0.00  0.00  0.98  0.00  0.00  0.00  0.11  0.00
  CDT-364                 1.00   0.01  0.00  0.00  0.96  0.02  0.00  0.00  0.95  0.00
  CDT-368                 1.00   0.02  0.00  0.00  0.46  0.52  0.00  0.00  0.98  0.00
  CDT-372                 4.17   0.02  0.00  0.00  0.68  0.30  0.00  0.00  0.95  0.00
  CDT-376                 1.00   0.01  0.00  0.00  0.95  0.03  0.00  0.00  0.95  0.00
  CDT-380                 1.36   0.02  0.00  0.00  0.00  0.00  0.00  0.98  0.00  0.00
  CDT-382                 1.00   0.01  0.80  0.00  0.03  0.16  0.00  0.00  0.94  0.00
  CDT-384                 1.00   0.01  0.00  0.00  0.39  0.01  0.00  0.59  0.39  0.00
  CDT-395                 1.69   0.00  0.02  0.00  0.98  0.00  0.00  0.00  0.10  0.00
  CDT-400                 1.00   0.01  0.00  0.00  0.98  0.00  0.00  0.00  0.96  0.00
  CDT-404                 2.05   0.01  0.00  0.00  0.98  0.01  0.00  0.00  0.96  0.00
  CDT-408                 1.00   0.01  0.00  0.00  0.95  0.03  0.00  0.00  0.95  0.00
  CDT-412                 2.47   0.02  0.00  0.00  0.00  0.00  0.00  0.98  0.00  0.00
  CDT-414                 1.00   0.01  0.89  0.00  0.09  0.00  0.00  0.00  0.92  0.00
  CDT-416                 1.00   0.01  0.00  0.00  0.97  0.02  0.00  0.00  0.95  0.00
  CDT-420                 1.00   0.01  0.01  0.00  0.87  0.11  0.00  0.00  0.98  0.00
  CDT-424                 1.00   0.01  0.00  0.00  0.32  0.01  0.00  0.65  0.33  0.00
  CDT-428                 1.00   0.01  0.00  0.00  0.97  0.02  0.00  0.00  0.87  0.00
  CDT-432                 1.00   0.01  0.00  0.00  0.92  0.06  0.00  0.00  0.87  0.00
  CDT-436                 1.00   0.01  0.00  0.00  0.00  0.00  0.00  0.99  0.00  0.00
  CDT-438                 3.70   0.02  0.84  0.00  0.09  0.00  0.05  0.00  0.09  0.00
  CDT-440                 3.46   0.02  0.00  0.00  0.98  0.00  0.00  0.00  0.97  0.00
  CDT-444                 1.00   0.01  0.00  0.00  0.95  0.03  0.00  0.00  0.94  0.00
  CDT-446                 2.61   0.02  0.00  0.00  0.00  0.00  0.00  0.98  0.00  0.00
  CDT-448                 1.00   0.02  0.89  0.00  0.09  0.00  0.00  0.00  0.92  0.00
  CDT-456                 1.00   0.01  0.00  0.00  0.99  0.00  0.00  0.00  0.96  0.00
  CDT-460                 1.00   0.01  0.00  0.00  0.89  0.10  0.00  0.00  0.77  0.00
  CDT-464                 4.13   0.02  0.00  0.00  0.58  0.41  0.00  0.00  0.79  0.00
  CDT-468                 1.00   0.01  0.00  0.00  0.96  0.03  0.00  0.00  0.95  0.00
  CDT-472                 1.00   0.01  0.00  0.00  0.80  0.19  0.00  0.00  0.95  0.00
  CDT-476                 2.88   0.02  0.00  0.00  0.00  0.00  0.00  0.98  0.00  0.00
  CDT-478                 1.00   0.01  0.88  0.00  0.10  0.00  0.00  0.00  0.93  0.00
  CDT-480                 1.00   0.01  0.00  0.00  0.93  0.05  0.00  0.00  0.92  0.00
  CDT-482                 1.23   0.01  0.01  0.00  0.98  0.00  0.00  0.00  0.98  0.00
  CDT-484                 1.00   0.01  0.00  0.00  0.99  0.00  0.00  0.00  0.00  0.00
  CDT-486                 1.07   0.02  0.00  0.00  0.81  0.17  0.00  0.00  0.95  0.00
  CDT-488                 1.00   0.01  0.00  0.00  0.93  0.06  0.00  0.00  0.96  0.00
  CDT-490                 1.00   0.02  0.00  0.00  0.00  0.03  0.00  0.94  0.03  0.00
  CDT-492                 1.13   0.01  0.00  0.00  0.93  0.06  0.00  0.00  0.94  0.00
  CDT-495                 1.00   0.02  0.00  0.00  0.00  0.06  0.00  0.92  0.06  0.00
  CDT-496                 4.53   0.01  0.01  0.00  0.48  0.50  0.00  0.00  0.65  0.00
  CDT-500                 1.51   0.01  0.00  0.00  0.25  0.01  0.00  0.72  0.26  0.00
  CDT-504                 1.00   0.01  0.00  0.00  0.98  0.01  0.00  0.00  0.94  0.00
  CDT-508                 1.00   0.01  0.00  0.00  0.99  0.00  0.00  0.00  0.95  0.00
  CDT-512                 1.00   0.01  0.00  0.00  0.99  0.00  0.00  0.00  0.75  0.00
  CDT-514                13.58   0.02  0.00  0.00  0.00  0.98  0.00  0.00  0.09  0.00
  CDT-516                 1.00   0.01  0.00  0.00  0.00  0.00  0.00  0.99  0.00  0.00
  CDT-518                 4.17   0.01  0.66  0.00  0.15  0.00  0.17  0.00  0.14  0.00
  CDT-520                 1.00   0.01  0.00  0.00  0.98  0.00  0.00  0.00  0.96  0.00
  CDT-524                 1.00   0.01  0.00  0.00  0.98  0.00  0.00  0.00  0.67  0.00
  CDT-526                 1.00   0.01  0.00  0.00  0.97  0.01  0.00  0.00  0.95  0.00
  CDT-528                 1.00   0.01  0.00  0.00  0.93  0.05  0.00  0.00  0.95  0.00
  CDT-530                 1.00   0.01  0.00  0.00  0.91  0.08  0.00  0.00  0.91  0.00
  CDT-532                 4.19   0.01  0.01  0.00  0.95  0.03  0.00  0.00  0.98  0.00
  CDT-534                 1.00   0.01  0.00  0.00  0.99  0.00  0.00  0.00  0.98  0.00
  CDT-535                 1.00   0.01  0.00  0.00  0.98  0.00  0.00  0.00  0.94  0.00
  CDT-536                 1.00   0.01  0.00  0.00  0.99  0.00  0.00  0.00  0.91  0.00
  CDT-540                 1.00   0.01  0.00  0.00  0.95  0.03  0.00  0.00  0.89  0.00
  CDT-542                 2.69   0.01  0.00  0.00  0.01  0.04  0.00  0.94  0.04  0.00
  CDT-543                 2.79   0.02  0.65  0.00  0.17  0.00  0.15  0.00  0.17  0.00
  CDT-544                 1.00   0.01  0.00  0.00  0.95  0.03  0.00  0.00  0.94  0.00
  CDT-545                 2.29   0.02  0.00  0.00  0.65  0.33  0.00  0.00  0.02  0.00
  CDT-546                 1.00   0.01  0.00  0.00  0.98  0.00  0.00  0.00  0.61  0.00
  CDT-548                 1.00   0.01  0.00  0.00  0.95  0.03  0.00  0.00  0.95  0.00
  CDT-550                 4.66   0.02  0.00  0.00  0.00  0.00  0.00  0.98  0.00  0.00
  CDT-551                 1.00   0.01  0.76  0.00  0.02  0.21  0.00  0.00  0.91  0.00
  CDT-552                 1.00   0.01  0.00  0.00  0.90  0.08  0.00  0.00  0.95  0.00
  CDT-553                 1.00   0.01  0.00  0.00  0.00  0.00  0.00  0.99  0.00  0.00
  CDT-554                 1.00   0.01  0.00  0.00  0.71  0.27  0.00  0.00  0.85  0.00
  CDT-555                 1.00   0.01  0.00  0.00  0.00  0.00  0.00  0.99  0.00  0.00
  CDT-556                 3.91   0.06  0.79  0.00  0.09  0.06  0.00  0.00  0.93  0.00
  CDT-557                 2.67   0.02  0.79  0.00  0.02  0.18  0.00  0.00  0.92  0.00
  CDT-558                 3.28   0.06  0.00  0.00  0.94  0.00  0.00  0.00  0.70  0.00
  CDT-559                 1.30   0.01  0.00  0.00  0.86  0.13  0.00  0.00  0.94  0.00
  CDT-560                 1.00   0.01  0.00  0.00  0.96  0.03  0.00  0.00  0.96  0.00
  CDT-561                 1.00   0.09  0.00  0.00  0.25  0.00  0.00  0.66  0.25  0.00
  CDT-562                 1.43   0.01  0.01  0.00  0.81  0.17  0.00  0.00  0.98  0.00
  CDT-563                 1.32   0.01  0.00  0.00  0.95  0.04  0.00  0.00  0.96  0.00
  CDT-564                 3.70   0.02  0.00  0.00  0.65  0.33  0.00  0.00  0.94  0.00
  CDT-565                 3.32   0.02  0.00  0.00  0.80  0.18  0.00  0.00  0.78  0.00
  CDT-566                 1.00   0.01  0.00  0.00  0.25  0.00  0.00  0.74  0.25  0.00
  CDT-568                 1.08   0.01  0.01  0.00  0.63  0.35  0.00  0.00  0.97  0.00
  CDT-569                 1.04   0.01  0.00  0.00  0.00  0.05  0.00  0.93  0.05  0.00
  CDT-570                 3.87   0.06  0.66  0.00  0.19  0.01  0.08  0.00  0.10  0.00
  CDT-574                 1.00   0.06  0.00  0.00  0.40  0.00  0.00  0.54  0.09  0.00
  CDT-576                 1.00   0.01  0.00  0.00  0.88  0.11  0.00  0.00  0.94  0.00
  CDT-578                 1.25   0.00  0.02  0.00  0.98  0.00  0.00  0.00  0.14  0.00
  CDT-580                 1.00   0.01  0.00  0.00  0.95  0.03  0.00  0.00  0.95  0.00
  CDT-584                 1.00   0.09  0.00  0.00  0.91  0.00  0.00  0.00  0.87  0.00
  CDT-588                 1.00   0.09  0.00  0.00  0.90  0.01  0.00  0.00  0.90  0.00
  CDT-592                 1.00   0.01  0.08  0.00  0.91  0.00  0.00  0.00  0.91  0.00
  CDT-596                 1.00   0.01  0.00  0.00  0.99  0.00  0.00  0.00  0.98  0.00
  CDT-600                 1.00   0.01  0.00  0.00  0.99  0.00  0.00  0.00  0.98  0.00
  CDT-604                 1.00   0.01  0.00  0.00  0.99  0.00  0.00  0.00  0.98  0.00
  CDT-608                 1.00   0.01  0.00  0.00  0.99  0.00  0.00  0.00  0.98  0.00
  CDT-612                 1.00   0.01  0.00  0.00  0.99  0.00  0.00  0.00  0.09  0.00
  CDT-614                 1.00   0.01  0.00  0.00  0.77  0.21  0.00  0.00  0.32  0.00
  CDT-620                 1.00   0.00  0.01  0.00  0.99  0.00  0.00  0.00  0.99  0.00
  CDT-625                 1.00   0.02  0.00  0.00  0.00  0.00  0.00  0.98  0.00  0.00
  CDT-628                 1.00   0.01  0.00  0.00  0.96  0.02  0.00  0.00  0.76  0.00
  CDT-630                 1.12   0.00  0.02  0.00  0.90  0.05  0.00  0.03  0.95  0.00
  CDT-634                 1.00   0.02  0.00  0.00  0.00  0.00  0.00  0.98  0.00  0.00
  CDT-635                 1.00   0.02  0.00  0.00  0.00  0.00  0.00  0.98  0.00  0.00
  CDT-636                 1.00   0.00  0.03  0.00  0.85  0.05  0.00  0.07  0.90  0.00
  CDT-642                 1.00   0.02  0.00  0.00  0.00  0.00  0.00  0.98  0.00  0.00
  CDT-646                 1.00   0.02  0.00  0.00  0.00  0.00  0.00  0.98  0.00  0.00
  CDT-648                 1.00   0.02  0.00  0.00  0.00  0.00  0.00  0.98  0.00  0.00
  CDT-650                 1.00   0.01  0.00  0.00  0.99  0.00  0.00  0.00  0.92  0.00
  CDT-652                 1.00   0.01  0.00  0.00  0.94  0.04  0.00  0.00  0.90  0.00
  CDT-654                 1.00   0.02  0.00  0.00  0.00  0.00  0.00  0.98  0.00  0.00
  CDT-658                 1.00   0.02  0.00  0.00  0.00  0.03  0.00  0.94  0.03  0.00
  CDT-662                 1.61   0.02  0.00  0.00  0.00  0.00  0.00  0.98  0.00  0.00
  CDT-664                 1.00   0.02  0.00  0.00  0.77  0.03  0.00  0.17  0.81  0.00
  CDT-666                 1.00   0.00  0.02  0.00  0.98  0.00  0.00  0.00  0.15  0.00
  
  
  *************************
  Conduit Surcharge Summary
  *************************
  
  ----------------------------------------------------------------------------
                                                           Hours        Hours 
                         --------- Hours Full --------   Above Full   Capacity
  Conduit                Both Ends  Upstream  Dnstream   Normal Flow   Limited
  ----------------------------------------------------------------------------
  CDT-124                     0.01      0.01      0.93      0.01         0.01
  CDT-125                     0.01      0.01      0.93      0.01         0.01
  CDT-228                     0.01      0.01      0.72      0.01         0.01
  CDT-284                     0.01      0.01      0.78      0.01         0.01
  CDT-384                     0.01      0.01      0.68      0.01         0.01
  CDT-395                     0.01      0.01      3.48      0.01         0.01
  CDT-424                     0.01      0.01      0.59      0.01         0.01
  CDT-500                     0.01      0.01      0.89      0.01         0.01
  CDT-566                     0.01      0.01      0.87      0.01         0.01
  CDT-574                     0.01      0.01      0.68      0.01         0.01
  CDT-578                     0.01      0.01      4.87      0.01         0.01
  CDT-612                     0.01      0.01      0.49      0.01         0.01
  CDT-620                     0.01      0.01      4.87      0.01         0.01
  CDT-630                     0.01      0.01      3.48      0.01         0.01
  

  Analysis begun on:  Wed Jun 24 12:14:53 2026
  Analysis ended on:  Wed Jun 24 12:14:53 2026
  Total elapsed time: < 1 sec