
  EPA STORM WATER MANAGEMENT MODEL - VERSION 5.2 (Build 5.2.4)
  ------------------------------------------------------------

  
  ERROR 211: invalid number  at line 11380 of [XSECT] section:
  RV_ALT2-9	CIRCULAR	0.000000	0.000000	0.000000	0.000000	1	0


  Analysis begun on:  Wed Jun 24 12:14:57 2026
  Analysis ended on:  Wed Jun 24 12:14:57 2026
  Total elapsed time: < 1 sec