
  EPA STORM WATER MANAGEMENT MODEL - VERSION 5.2 (Build 5.2.4)
  ------------------------------------------------------------

  
  ERROR 211: invalid number -202.600000 at line 170 of [JUNC] section:
  SSM186	202.600000	-202.600000	0.000000	0.000000	0.000000

  
  ERROR 211: invalid number -209.850000 at line 172 of [JUNC] section:
  SSM188A	209.850000	-209.850000	0.000000	0.000000	0.000000

  
  ERROR 211: invalid number -122.340000 at line 183 of [JUNC] section:
  SSM1A	122.340000	-122.340000	0.000000	0.000000	0.000000

  
  ERROR 211: invalid number -45.330000 at line 251 of [JUNC] section:
  SSM271	177.960000	-45.330000	0.000000	0.000000	0.000000

  
  ERROR 211: invalid number -109.760000 at line 272 of [JUNC] section:
  SSM285	109.760000	-109.760000	0.000000	0.000000	0.000000

  
  ERROR 211: invalid number -146.000000 at line 340 of [JUNC] section:
  SSM370	146.000000	-146.000000	0.000000	0.000000	0.000000

  
  ERROR 211: invalid number -128.000000 at line 428 of [JUNC] section:
  SSM474	128.000000	-128.000000	0.000000	0.000000	0.000000


  Analysis begun on:  Wed Jun 24 12:14:58 2026
  Analysis ended on:  Wed Jun 24 12:14:58 2026
  Total elapsed time: < 1 sec