
  EPA STORM WATER MANAGEMENT MODEL - VERSION 5.2 (Build 5.2.4)
  ------------------------------------------------------------

  WARNING 03: negative offset ignored for Link 1530
  WARNING 03: negative offset ignored for Link 1531
  WARNING 03: negative offset ignored for Link 1605
  WARNING 04: minimum elevation drop used for Conduit 20002
  WARNING 03: negative offset ignored for Link 40136
  WARNING 04: minimum elevation drop used for Conduit 407
  WARNING 03: negative offset ignored for Link 51432
  WARNING 04: minimum elevation drop used for Conduit 562
  WARNING 03: negative offset ignored for Link 651
  WARNING 03: negative offset ignored for Link 692
  WARNING 03: negative offset ignored for Link 7787
  WARNING 08: elevation drop exceeds length for Conduit 7825
  WARNING 04: minimum elevation drop used for Conduit 7838
  WARNING 04: minimum elevation drop used for Conduit 7959
  WARNING 04: minimum elevation drop used for Conduit 7961
  WARNING 04: minimum elevation drop used for Conduit 7965
  WARNING 03: negative offset ignored for Link 7990
  WARNING 04: minimum elevation drop used for Conduit 8027
  WARNING 04: minimum elevation drop used for Conduit 8053
  WARNING 04: minimum elevation drop used for Conduit 8111
  WARNING 03: negative offset ignored for Link 814116
  WARNING 04: minimum elevation drop used for Conduit 8160
  WARNING 04: minimum elevation drop used for Conduit 8163
  WARNING 04: minimum elevation drop used for Conduit 8228
  WARNING 04: minimum elevation drop used for Conduit 8274
  WARNING 04: minimum elevation drop used for Conduit 8376
  WARNING 04: minimum elevation drop used for Conduit 8408
  WARNING 04: minimum elevation drop used for Conduit 8410
  WARNING 04: minimum elevation drop used for Conduit 8442
  WARNING 04: minimum elevation drop used for Conduit 8455
  WARNING 04: minimum elevation drop used for Conduit 8456
  WARNING 04: minimum elevation drop used for Conduit 8460
  WARNING 04: minimum elevation drop used for Conduit 8462
  WARNING 04: minimum elevation drop used for Conduit 8465
  WARNING 04: minimum elevation drop used for Conduit 8474
  WARNING 04: minimum elevation drop used for Conduit 8484
  WARNING 04: minimum elevation drop used for Conduit 8489
  WARNING 04: minimum elevation drop used for Conduit 8493
  WARNING 04: minimum elevation drop used for Conduit 8520
  WARNING 04: minimum elevation drop used for Conduit 8597
  WARNING 04: minimum elevation drop used for Conduit 8610
  WARNING 04: minimum elevation drop used for Conduit LTPS_FM03
  WARNING 04: minimum elevation drop used for Conduit LTPS_FM04
  WARNING 03: negative offset ignored for Link M2_016
  WARNING 04: minimum elevation drop used for Conduit SPRUCE_3_THROUGH
  WARNING 02: maximum depth increased for Node 6435
  
  ****************
  Analysis Options
  ****************
  Flow Units ............... GPM
  Process Models:
    Rainfall/Runoff ........ YES
    RDII ................... YES
    Snowmelt ............... NO
    Groundwater ............ NO
    Flow Routing ........... YES
    Ponding Allowed ........ NO
    Water Quality .......... NO
  Flow Routing Method ...... DYNWAVE
  Surcharge Method ......... EXTRAN
  Starting Date ............ 12/10/1977 00:00:00
  Ending Date .............. 12/14/1977 02:00:00
  Antecedent Dry Days ...... 0.0
  Report Time Step ......... 00:15:00
  Routing Time Step ........ 30.00 sec
  Variable Time Step ....... YES
  Maximum Trials ........... 6
  Number of Threads ........ 1
  Head Tolerance ........... 0.005000 ft
  
  
  **********************           Volume        Volume
  Rainfall Dependent I/I        acre-feet      10^6 gal
  **********************        ---------     ---------
  Sewershed Rainfall ......      2305.069       751.141
  RDII Produced ...........       304.238        99.141
  RDII Ratio ..............         0.132
  
  
  **************************        Volume        Volume
  Flow Routing Continuity        acre-feet      10^6 gal
  **************************     ---------     ---------
  Dry Weather Inflow .......        62.980        20.523
  Wet Weather Inflow .......         0.000         0.000
  Groundwater Inflow .......         0.000         0.000
  RDII Inflow ..............       304.231        99.138
  External Inflow ..........         0.000         0.000
  External Outflow .........       375.987       122.521
  Flooding Loss ............         0.000         0.000
  Evaporation Loss .........         0.000         0.000
  Exfiltration Loss ........         0.000         0.000
  Initial Stored Volume ....         0.310         0.101
  Final Stored Volume ......        14.056         4.580
  Continuity Error (%) .....        -6.128
  
  
  *************************
  Highest Continuity Errors
  *************************
  Node 7199 (-67.66%)
  Node 7823 (-15.55%)
  Node SPRUCE_6 (8.51%)
  Node 7815 (-7.80%)
  Node 7854 (-6.46%)
  
  
  ***************************
  Time-Step Critical Elements
  ***************************
  Link SPRUCE_3_THROUGH (53.77%)
  Link 1438 (21.89%)
  Link 478 (5.92%)
  Link 7564 (4.44%)
  Link 1103 (2.81%)
  
  
  ********************************
  Highest Flow Instability Indexes
  ********************************
  Link DU-IPS-FM1 (49)
  Link DU-IPS-FM2 (49)
  Link 1365 (39)
  Link 7802 (38)
  Link 1346 (38)
  
  
  *********************************
  Most Frequent Nonconverging Nodes
  *********************************
  Node DU-IPS-OUTFALL1 (88.55%)
  Node DU-IPS-OUTFALL2 (88.55%)
  Node DU-IPS_FM1 (49.36%)
  Node DU-IPS_FM2 (49.36%)
  Node 7865 (35.86%)
  
  
  *************************
  Routing Time Step Summary
  *************************
  Minimum Time Step           :     0.15 sec
  Average Time Step           :     3.52 sec
  Maximum Time Step           :     9.11 sec
  % of Time in Steady State   :     0.00
  Average Iterations per Step :     5.85
  % of Steps Not Converging   :    88.55
  Time Step Frequencies       :
     30.000 -  3.817 sec      :    37.28 %
      3.817 -  0.486 sec      :    60.55 %
      0.486 -  0.062 sec      :     2.17 %
      0.062 -  0.008 sec      :     0.00 %
      0.008 -  0.001 sec      :     0.00 %
  
  
  ******************
  Node Depth Summary
  ******************
  
  ---------------------------------------------------------------------------------
                                 Average  Maximum  Maximum  Time of Max    Reported
                                   Depth    Depth      HGL   Occurrence   Max Depth
  Node                 Type         Feet     Feet     Feet  days hr:min        Feet
  ---------------------------------------------------------------------------------
  12122                JUNCTION     0.49     0.78   102.33     3  13:19        0.78
  12123                JUNCTION     0.81     1.16   102.99     3  13:17        1.16
  20000                JUNCTION     0.31     0.50   161.50     3  10:04        0.50
  20002                JUNCTION     0.48     0.70   100.38     3  10:48        0.70
  20004                JUNCTION     2.23     4.03    97.26     3  12:11        3.95
  20006                JUNCTION     2.13     5.08    97.34     3  10:58        4.81
  20008                JUNCTION     0.77     0.95   133.46     3  13:23        0.95
  20010                JUNCTION     0.31     0.50   130.50     3  13:24        0.50
  20012                JUNCTION     0.36     0.58   130.07     3  13:22        0.58
  5000                 JUNCTION     0.15     0.21   181.08     3  09:40        0.21
  5002                 JUNCTION     0.05     0.07   182.50     3  10:13        0.07
  5003                 JUNCTION     1.23     1.56   183.11     3  10:25        1.56
  5004                 JUNCTION     0.19     0.35   183.61     3  09:26        0.35
  5005                 JUNCTION     0.00     0.00   489.60     0  06:49        0.00
  5006                 JUNCTION     0.58     0.67   145.56     3  10:13        0.67
  5007                 JUNCTION     0.26     0.75   202.01     3  09:50        0.75
  5335                 JUNCTION     0.08     0.12   493.86     3  08:10        0.12
  5336                 JUNCTION     0.13     0.23   493.27     3  08:15        0.23
  5337                 JUNCTION     0.20     0.32   492.12     3  08:17        0.32
  5338                 JUNCTION     0.19     0.31   491.01     3  08:18        0.31
  5339                 JUNCTION     0.23     0.38   490.30     3  08:19        0.38
  5340                 JUNCTION     0.13     0.21   489.32     3  08:20        0.21
  5341                 JUNCTION     0.18     0.30   484.62     3  08:20        0.30
  5342                 JUNCTION     0.10     0.16   482.98     3  08:20        0.16
  5343                 JUNCTION     0.07     0.11   475.58     3  08:20        0.11
  5344                 JUNCTION     0.08     0.12   433.59     3  08:21        0.12
  5345                 JUNCTION     0.15     0.24   422.25     3  08:21        0.24
  5346                 JUNCTION     0.10     0.15   420.36     3  08:21        0.15
  5347                 JUNCTION     0.10     0.16   397.17     3  08:22        0.16
  5348                 JUNCTION     0.09     0.15   388.17     3  08:22        0.15
  5362                 JUNCTION     0.02     0.03   487.33     3  08:10        0.03
  5363                 JUNCTION     0.02     0.03   472.12     3  08:10        0.03
  5364                 JUNCTION     0.02     0.03   466.19     3  08:10        0.03
  5365                 JUNCTION     0.07     0.11   457.63     3  08:10        0.11
  5366                 JUNCTION     0.06     0.10   457.15     3  08:10        0.10
  5367                 JUNCTION     0.00     0.00   454.47     0  00:00        0.00
  5368                 JUNCTION     0.00     0.00   454.14     0  00:00        0.00
  5369                 JUNCTION     0.04     0.07   453.39     3  08:10        0.07
  5370                 JUNCTION     0.07     0.11   452.21     3  08:14        0.11
  5371                 JUNCTION     0.05     0.09   451.82     3  08:18        0.09
  5372                 JUNCTION     0.12     0.20   446.22     3  08:12        0.20
  5373                 JUNCTION     0.15     0.24   445.07     3  08:17        0.24
  5374                 JUNCTION     0.06     0.10   613.06     3  08:05        0.10
  5375                 JUNCTION     0.05     0.08   598.34     3  08:06        0.08
  5376                 JUNCTION     0.05     0.09   589.46     3  08:10        0.09
  5377                 JUNCTION     0.05     0.09   559.13     3  08:10        0.09
  5378                 JUNCTION     0.06     0.10   549.94     3  08:10        0.10
  5379                 JUNCTION     0.09     0.16   528.66     3  08:10        0.16
  5380                 JUNCTION     0.12     0.20   527.47     3  08:10        0.20
  5381                 JUNCTION     0.13     0.21   526.81     3  08:10        0.21
  5382                 JUNCTION     0.16     0.27   524.49     3  08:10        0.27
  5383                 JUNCTION     0.07     0.11   522.93     3  08:10        0.11
  5384                 JUNCTION     0.12     0.19   504.98     3  08:11        0.19
  5385                 JUNCTION     0.15     0.24   499.29     3  08:12        0.24
  5386                 JUNCTION     0.13     0.21   496.43     3  08:13        0.21
  5387                 JUNCTION     0.19     0.31   494.32     3  08:14        0.31
  5388                 JUNCTION     0.19     0.30   493.26     3  08:15        0.30
  5389                 JUNCTION     0.20     0.33   492.49     3  08:16        0.33
  5390                 JUNCTION     0.04     0.07   451.29     3  08:15        0.07
  5404                 JUNCTION     0.00     0.00   456.00     0  00:00        0.00
  5412                 JUNCTION     0.07     0.11   450.85     3  08:10        0.11
  5413                 JUNCTION     0.11     0.19   451.14     3  08:10        0.19
  5414                 JUNCTION     0.06     0.09   452.37     3  08:10        0.09
  5415                 JUNCTION     0.09     0.15   386.15     3  09:40        0.15
  5416                 JUNCTION     0.10     0.16   384.22     3  09:40        0.16
  5417                 JUNCTION     0.10     0.16   380.36     3  09:40        0.16
  5418                 JUNCTION     0.09     0.15   382.02     3  09:37        0.15
  5419                 JUNCTION     0.08     0.13   368.71     3  09:40        0.13
  5420                 JUNCTION     0.15     0.25   358.58     3  09:40        0.25
  5421                 JUNCTION     0.10     0.16   356.81     3  09:41        0.16
  5422                 JUNCTION     0.09     0.15   349.45     3  09:41        0.15
  5423                 JUNCTION     0.10     0.17   346.37     3  09:40        0.17
  5424                 JUNCTION     0.08     0.13   334.93     3  09:40        0.13
  5425                 JUNCTION     0.10     0.16   331.13     3  09:40        0.16
  5426                 JUNCTION     0.08     0.13   320.04     3  09:40        0.13
  5427                 JUNCTION     0.09     0.14   295.99     3  09:40        0.14
  5428                 JUNCTION     0.11     0.18   280.19     3  09:40        0.18
  5429                 JUNCTION     0.19     0.32   271.00     3  09:40        0.32
  5430                 JUNCTION     0.20     0.35   269.71     3  09:40        0.35
  5431                 JUNCTION     0.19     0.33   268.40     3  09:40        0.33
  5432                 JUNCTION     0.35     0.62   266.05     3  09:40        0.62
  5433                 JUNCTION     0.39     0.69   265.16     3  09:40        0.69
  5434                 JUNCTION     0.38     0.66   263.96     3  09:41        0.66
  5435                 JUNCTION     0.38     0.68   262.70     3  09:42        0.68
  5436                 JUNCTION     0.11     0.19   340.64     3  09:40        0.19
  5437                 JUNCTION     0.39     0.68   261.76     3  09:44        0.68
  5438                 JUNCTION     0.29     0.51   260.51     3  09:44        0.51
  5450                 JUNCTION     0.14     0.24   297.04     3  08:10        0.24
  5451                 JUNCTION     0.21     0.35   285.27     3  08:10        0.35
  5452                 JUNCTION     0.17     0.28   280.29     3  08:10        0.28
  5453                 JUNCTION     0.19     0.32   268.44     3  08:11        0.32
  5454                 JUNCTION     0.19     0.31   266.71     3  08:11        0.31
  5455                 JUNCTION     0.43     0.58   259.67     3  08:12        0.58
  5470                 JUNCTION     0.22     0.36   222.78     3  08:24        0.36
  5471                 JUNCTION     0.31     0.53   219.04     3  08:24        0.53
  5472                 JUNCTION     0.31     0.53   217.67     3  08:25        0.53
  5473                 JUNCTION     0.33     0.56   216.29     3  08:26        0.56
  5474                 JUNCTION     0.26     0.44   214.40     3  08:26        0.44
  5475                 JUNCTION     0.13     0.21   246.39     3  08:01        0.21
  5476                 JUNCTION     0.13     0.21   245.51     3  08:10        0.21
  5503                 JUNCTION     0.08     0.12   268.65     3  08:09        0.12
  5504                 JUNCTION     0.10     0.16   268.16     3  08:10        0.16
  5505                 JUNCTION     0.11     0.17   264.21     3  08:09        0.17
  5506                 JUNCTION     0.11     0.18   261.55     3  08:10        0.18
  5507                 JUNCTION     0.09     0.15   256.34     3  08:10        0.15
  5508                 JUNCTION     0.13     0.21   252.85     3  08:10        0.21
  5509                 JUNCTION     0.13     0.21   250.90     3  08:10        0.21
  5510                 JUNCTION     0.13     0.21   250.04     3  08:10        0.21
  5511                 JUNCTION     0.16     0.25   247.44     3  08:00        0.25
  5512                 JUNCTION     0.09     0.14   268.06     3  10:00        0.14
  5513                 JUNCTION     0.08     0.14   260.84     3  10:01        0.14
  5514                 JUNCTION     0.14     0.23   259.32     3  10:04        0.23
  5515                 JUNCTION     0.13     0.21   256.90     3  10:00        0.21
  5516                 JUNCTION     0.13     0.22   249.74     3  10:00        0.22
  5517                 JUNCTION     0.17     0.28   243.76     3  10:00        0.28
  5518                 JUNCTION     0.20     0.35   235.91     3  10:00        0.35
  5519                 JUNCTION     0.20     0.35   233.11     3  10:01        0.35
  5520                 JUNCTION     0.20     0.34   230.39     3  10:02        0.34
  5521                 JUNCTION     0.17     0.28   239.47     3  08:13        0.28
  5522                 JUNCTION     0.16     0.25   237.71     3  08:14        0.25
  5523                 JUNCTION     0.17     0.27   236.47     3  08:15        0.27
  5524                 JUNCTION     0.13     0.20   233.61     3  08:15        0.20
  5525                 JUNCTION     0.16     0.26   226.08     3  08:15        0.26
  5526                 JUNCTION     0.16     0.26   224.18     3  08:16        0.26
  5527                 JUNCTION     0.17     0.28   220.05     3  08:17        0.28
  5528                 JUNCTION     0.19     0.31   219.35     3  08:17        0.31
  5529                 JUNCTION     0.17     0.26   218.65     3  08:18        0.26
  5530                 JUNCTION     0.17     0.27   215.86     3  08:18        0.27
  5531                 JUNCTION     0.17     0.27   215.16     3  08:20        0.27
  5532                 JUNCTION     0.26     0.42   212.42     3  08:26        0.42
  5533                 JUNCTION     0.20     0.35   228.10     3  10:03        0.35
  5534                 JUNCTION     0.22     0.38   225.35     3  10:04        0.38
  5535                 JUNCTION     0.18     0.30   222.63     3  10:05        0.30
  5536                 JUNCTION     0.36     0.63   217.44     3  10:00        0.63
  5537                 JUNCTION     0.42     0.73   217.06     3  10:00        0.73
  5538                 JUNCTION     0.20     0.34   216.59     3  10:00        0.34
  5539                 JUNCTION     0.27     0.47   210.05     3  10:00        0.47
  5540                 JUNCTION     0.28     0.52   211.41     3  10:05        0.52
  5541                 JUNCTION     0.34     0.61   205.74     3  10:04        0.61
  5542                 JUNCTION     0.26     0.47   204.17     3  10:01        0.47
  5543                 JUNCTION     0.31     0.53   203.63     3  10:01        0.53
  5576                 JUNCTION     0.17     0.31   218.15     3  09:36        0.31
  5577                 JUNCTION     0.18     0.32   217.13     3  10:01        0.32
  5578                 JUNCTION     0.20     0.35   221.92     3  10:05        0.35
  5579                 JUNCTION     0.43     0.96   218.72     3  10:00        0.95
  5580                 JUNCTION     0.21     0.36   217.49     3  10:05        0.36
  5615                 JUNCTION     0.02     0.03   190.08     0  07:07        0.03
  5616                 JUNCTION     0.02     0.03   189.23     0  08:22        0.03
  5617                 JUNCTION     0.02     0.03   188.62     0  09:00        0.03
  5618                 JUNCTION     0.05     0.07   187.37     3  09:06        0.07
  5619                 JUNCTION     0.04     0.06   186.37     3  09:10        0.06
  5620                 JUNCTION     0.14     0.24   185.25     3  10:10        0.24
  5621                 JUNCTION     0.19     0.33   184.21     3  10:10        0.33
  5622                 JUNCTION     0.18     0.31   183.81     3  10:10        0.31
  5672                 JUNCTION     0.19     0.30   240.58     3  08:11        0.30
  5681                 JUNCTION     0.17     0.28   233.93     3  08:21        0.28
  5682                 JUNCTION     0.19     0.31   228.81     3  08:22        0.31
  5683                 JUNCTION     0.10     0.15   247.79     3  08:20        0.15
  5684                 JUNCTION     0.16     0.25   228.75     3  08:20        0.25
  5687                 JUNCTION     0.46     0.72   225.76     3  08:21        0.72
  5688                 JUNCTION     0.22     0.36   225.36     3  08:22        0.36
  5693                 JUNCTION     0.27     0.44   222.92     3  08:23        0.44
  5694                 JUNCTION     0.28     0.46   221.76     3  08:24        0.46
  5695                 JUNCTION     0.46     0.71   221.13     3  08:25        0.71
  5696                 JUNCTION     0.20     0.31   220.55     3  08:25        0.31
  5697                 JUNCTION     0.30     0.50   219.76     3  08:26        0.50
  5701                 JUNCTION     0.19     0.24   382.64     3  08:22        0.24
  5702                 JUNCTION     0.10     0.16   377.37     3  08:20        0.16
  5703                 JUNCTION     0.08     0.13   372.63     3  08:20        0.13
  5704                 JUNCTION     0.09     0.15   349.77     3  08:20        0.15
  5705                 JUNCTION     0.09     0.14   322.94     3  08:23        0.14
  5706                 JUNCTION     0.10     0.17   308.72     3  08:23        0.17
  5707                 JUNCTION     0.10     0.17   304.50     3  08:20        0.17
  5708                 JUNCTION     0.13     0.20   286.21     3  08:20        0.20
  5709                 JUNCTION     0.11     0.18   276.16     3  08:20        0.18
  5710                 JUNCTION     0.15     0.24   266.07     3  08:20        0.24
  5711                 JUNCTION     0.14     0.23   264.28     3  08:20        0.23
  5712                 JUNCTION     0.13     0.21   257.85     3  08:20        0.21
  5713                 JUNCTION     0.26     0.43   248.54     3  08:21        0.43
  5714                 JUNCTION     0.20     0.34   247.88     3  08:22        0.34
  5715                 JUNCTION     0.14     0.23   245.98     3  08:20        0.23
  5716                 JUNCTION     0.17     0.29   242.90     3  08:20        0.29
  5717                 JUNCTION     0.17     0.28   238.21     3  08:20        0.28
  5718                 JUNCTION     0.43     0.68   234.87     3  08:20        0.68
  5719                 JUNCTION     0.26     0.45   234.64     3  08:21        0.45
  5720                 JUNCTION     0.08     0.12   439.90     3  08:18        0.12
  5721                 JUNCTION     0.09     0.16   436.55     3  08:19        0.16
  5722                 JUNCTION     0.08     0.12   436.12     3  08:20        0.12
  5723                 JUNCTION     0.06     0.10   432.35     3  08:19        0.10
  5724                 JUNCTION     0.05     0.08   412.44     3  08:20        0.08
  5725                 JUNCTION     0.08     0.13   378.56     3  08:20        0.13
  5726                 JUNCTION     0.18     0.30   369.39     3  08:20        0.30
  5727                 JUNCTION     0.09     0.14   368.30     3  08:20        0.14
  5728                 JUNCTION     0.08     0.13   352.75     3  08:20        0.13
  5729                 JUNCTION     0.09     0.14   334.75     3  08:20        0.14
  5730                 JUNCTION     0.19     0.31   324.45     3  08:20        0.31
  5731                 JUNCTION     0.19     0.32   323.74     3  08:20        0.32
  5732                 JUNCTION     0.17     0.27   322.81     3  08:21        0.27
  5733                 JUNCTION     0.13     0.21   321.40     3  08:22        0.21
  5734                 JUNCTION     0.09     0.14   317.58     3  08:20        0.14
  5735                 JUNCTION     0.09     0.14   291.95     3  08:20        0.14
  5736                 JUNCTION     0.09     0.14   285.06     3  08:20        0.14
  5753                 JUNCTION     0.05     0.08   443.63     3  08:18        0.08
  5754                 JUNCTION     0.22     0.45   171.69     3  10:04        0.45
  5755                 JUNCTION     0.38     0.64   193.85     3  08:25        0.64
  5756                 JUNCTION     0.40     0.69   191.24     3  08:25        0.69
  5757                 JUNCTION     0.44     0.72   188.70     3  08:31        0.72
  5758                 JUNCTION     0.40     0.66   187.67     3  08:33        0.66
  5759                 JUNCTION     0.56     1.07   191.79     3  10:15        1.07
  5760                 JUNCTION     0.65     1.31   191.31     3  10:16        1.31
  5761                 JUNCTION     0.33     0.55   174.81     3  10:17        0.55
  5762                 JUNCTION     0.29     0.48   173.73     3  10:18        0.48
  5763                 JUNCTION     0.24     0.46   194.66     3  09:10        0.46
  5764                 JUNCTION     0.28     0.55   191.55     3  09:10        0.55
  5765                 JUNCTION     0.65     1.22   180.43     3  09:55        1.22
  5766                 JUNCTION     0.74     1.29   179.77     3  09:55        1.29
  5767                 JUNCTION     0.69     1.73   171.46     3  09:40        1.70
  5768                 JUNCTION     0.28     0.58   169.50     3  08:13        0.57
  5769                 JUNCTION     0.06     0.09   166.22     3  10:20        0.09
  5770                 JUNCTION     0.18     0.28   155.44     3  10:15        0.28
  5771                 JUNCTION     0.33     0.57   163.52     3  10:04        0.57
  5773                 JUNCTION     0.40     0.69   189.16     3  08:25        0.69
  5774                 JUNCTION     0.44     0.73   186.53     3  08:34        0.73
  5775                 JUNCTION     0.43     0.71   185.81     3  08:35        0.71
  5776                 JUNCTION     0.39     0.64   184.84     3  08:35        0.64
  5777                 JUNCTION     0.57     0.97   183.98     3  08:34        0.97
  5778                 JUNCTION     0.45     0.79   187.05     3  08:26        0.79
  5779                 JUNCTION     0.33     0.56   185.99     3  08:27        0.56
  5780                 JUNCTION     0.46     0.76   182.73     3  08:35        0.76
  5781                 JUNCTION     0.68     1.34   190.87     3  10:17        1.34
  5782                 JUNCTION     0.70     1.26   190.37     3  10:18        1.26
  5783                 JUNCTION     0.50     0.89   189.52     3  10:19        0.89
  5784                 JUNCTION     0.89     1.64   177.78     3  08:42        1.64
  5785                 JUNCTION     0.89     1.61   177.52     3  08:42        1.61
  5786                 JUNCTION     0.91     1.61   177.22     3  08:43        1.61
  5787                 JUNCTION     0.46     0.75   175.79     3  08:45        0.75
  5788                 JUNCTION     0.59     1.02   173.13     3  08:46        1.02
  5789                 JUNCTION     0.56     0.94   172.41     3  08:46        0.94
  5790                 JUNCTION     0.59     1.01   171.61     3  08:51        1.01
  5791                 JUNCTION     0.56     0.94   170.30     3  08:52        0.94
  5793                 JUNCTION     0.48     0.85   178.92     3  09:56        0.85
  5794                 JUNCTION     0.25     0.41   175.81     3  09:55        0.41
  5795                 JUNCTION     0.07     0.12   177.12     3  09:40        0.12
  5796                 JUNCTION     0.36     0.59   174.98     3  09:55        0.59
  5797                 JUNCTION     0.43     0.72   168.71     3  09:56        0.72
  5798                 JUNCTION     1.06     2.05   168.09     3  09:46        2.05
  5799                 JUNCTION     1.04     2.00   168.02     3  09:46        2.00
  5800                 JUNCTION     0.29     1.08   168.42     3  09:45        1.08
  5801                 JUNCTION     1.04     2.00   167.87     3  09:47        2.00
  5802                 JUNCTION     1.08     2.02   167.64     3  09:45        2.02
  5803                 JUNCTION     1.15     2.04   167.46     3  09:42        2.04
  5804                 JUNCTION     1.14     2.01   167.39     3  09:40        2.01
  5805                 JUNCTION     0.97     1.73   167.10     3  09:42        1.73
  5806                 JUNCTION     0.97     1.78   166.60     3  09:59        1.78
  5807                 JUNCTION     0.30     0.96   167.10     3  09:42        0.96
  5808                 JUNCTION     0.22     0.74   167.11     3  09:42        0.74
  5809                 JUNCTION     0.13     0.36   167.11     3  09:43        0.36
  5810                 JUNCTION     0.13     0.41   167.64     3  09:45        0.41
  5811                 JUNCTION     0.39     1.23   167.64     3  09:45        1.23
  5812                 JUNCTION     0.15     0.26   167.67     3  09:45        0.26
  5813                 JUNCTION     0.09     0.15   167.77     3  09:40        0.15
  5814                 JUNCTION     0.63     1.09   169.15     3  08:53        1.09
  5815                 JUNCTION     0.46     0.76   168.06     3  08:53        0.76
  5816                 JUNCTION     0.30     0.49   172.25     3  10:20        0.49
  5817                 JUNCTION     0.30     0.49   171.38     3  10:20        0.49
  5818                 JUNCTION     0.30     0.49   170.52     3  10:20        0.49
  5819                 JUNCTION     1.53     2.53   161.40     3  10:39        2.53
  5820                 JUNCTION     1.19     2.13   160.97     3  10:40        2.13
  5821                 JUNCTION     0.72     1.17   159.53     3  10:40        1.16
  5822                 JUNCTION     1.15     2.06   159.92     3  10:40        2.06
  5823                 JUNCTION     0.60     1.02   179.80     3  08:36        1.02
  5824                 JUNCTION     0.55     0.92   178.56     3  08:37        0.92
  5825                 JUNCTION     0.79     1.60   178.26     3  08:40        1.60
  5826                 JUNCTION     1.05     1.86   178.04     3  08:41        1.86
  5827                 JUNCTION     0.91     1.51   176.85     3  08:44        1.51
  5828                 JUNCTION     0.59     1.02   180.64     3  08:35        1.02
  5829                 JUNCTION     1.87     3.05   162.15     3  10:38        3.05
  5830                 JUNCTION     1.96     3.23   162.42     3  10:37        3.23
  5831                 JUNCTION     2.03     3.37   162.60     3  10:37        3.37
  5832                 JUNCTION     1.57     2.93   163.00     3  10:35        2.93
  5833                 JUNCTION     1.85     3.17   163.47     3  10:34        3.17
  5834                 JUNCTION     0.15     0.25   169.15     3  10:20        0.25
  5835                 JUNCTION     0.34     0.58   169.94     3  10:20        0.58
  5836                 JUNCTION     1.92     3.30   163.80     3  10:33        3.30
  5837                 JUNCTION     1.97     3.43   164.13     3  10:31        3.43
  5838                 JUNCTION     1.97     3.40   164.01     3  10:32        3.40
  5839                 JUNCTION     2.01     3.51   164.35     3  10:22        3.51
  5840                 JUNCTION     2.02     3.56   164.54     3  10:21        3.56
  5841                 JUNCTION     1.56     3.08   164.75     3  10:20        3.08
  5842                 JUNCTION     1.71     3.18   164.94     3  10:19        3.18
  5843                 JUNCTION     1.79     3.25   165.20     3  10:18        3.25
  5844                 JUNCTION     1.83     3.30   165.44     3  10:17        3.30
  5845                 JUNCTION     1.84     3.34   165.73     3  10:16        3.34
  5846                 JUNCTION     1.84     3.32   165.48     3  10:17        3.32
  5847                 JUNCTION     0.75     1.80   165.84     3  10:16        1.80
  5848                 JUNCTION     1.05     1.86   166.17     3  10:07        1.86
  5849                 JUNCTION     0.81     1.34   170.18     3  10:09        1.32
  5850                 JUNCTION     0.34     0.51   169.02     3  10:10        0.51
  5851                 JUNCTION     0.73     1.15   169.15     3  10:10        1.15
  5852                 JUNCTION     1.14     1.75   168.76     3  10:31        1.75
  5853                 JUNCTION     0.87     1.44   168.40     3  10:32        1.43
  5854                 JUNCTION     0.92     1.44   168.18     3  10:32        1.43
  5855                 JUNCTION     0.59     0.96   167.04     3  11:01        0.96
  5856                 JUNCTION     1.05     2.20   165.98     3  10:34        2.19
  5857                 JUNCTION     1.09     2.31   165.92     3  10:34        2.30
  5858                 JUNCTION     1.04     2.57   165.77     3  10:34        2.56
  5859                 JUNCTION     0.81     1.34   170.53     3  10:09        1.32
  5860                 JUNCTION     0.33     0.49   173.87     3  10:08        0.49
  5861                 JUNCTION     0.35     0.61   187.64     3  10:20        0.61
  5862                 JUNCTION     0.38     0.67   183.00     3  10:08        0.67
  5863                 JUNCTION     0.35     0.61   176.44     3  10:08        0.61
  5864                 JUNCTION     0.52     1.27   168.25     3  09:51        1.27
  5865                 JUNCTION     0.88     3.60   169.46     3  11:14        1.96
  5866                 JUNCTION     0.45     0.94   165.62     3  10:14        0.94
  5867                 JUNCTION     0.68     1.05   175.33     3  10:07        1.04
  5868                 JUNCTION     0.69     1.13   176.07     3  10:06        1.12
  5869                 JUNCTION     0.69     1.15   176.67     3  10:05        1.15
  5870                 JUNCTION     0.60     1.06   176.79     3  10:04        1.05
  5871                 JUNCTION     0.75     1.28   177.68     3  10:03        1.26
  5872                 JUNCTION     0.70     1.25   178.45     3  10:01        1.25
  5873                 JUNCTION     0.86     2.05   166.03     3  10:34        2.02
  5874                 JUNCTION     1.11     2.11   166.17     3  10:33        2.08
  5875                 JUNCTION     0.51     0.88   166.07     3  10:33        0.85
  5876                 JUNCTION     0.15     0.25   170.78     3  09:40        0.25
  5877                 JUNCTION     0.31     1.27   165.49     3  10:17        1.26
  5878                 JUNCTION     0.15     0.26   176.09     3  09:40        0.26
  5879                 JUNCTION     0.13     0.22   179.28     3  09:40        0.22
  5880                 JUNCTION     0.16     0.24   179.02     3  10:05        0.24
  5881                 JUNCTION     0.15     0.24   180.55     3  10:15        0.24
  5882                 JUNCTION     0.09     0.15   181.30     3  10:15        0.15
  5883                 JUNCTION     0.12     0.19   181.63     3  10:10        0.19
  5884                 JUNCTION     0.00     0.00   181.81     0  00:00        0.00
  5885                 JUNCTION     0.00     0.00   181.61     0  00:00        0.00
  5886                 JUNCTION     0.43     0.80   183.15     3  10:25        0.80
  5887                 JUNCTION     0.82     1.12   183.85     3  10:24        1.12
  5895                 JUNCTION     0.20     0.35   197.16     3  10:14        0.35
  5896                 JUNCTION     0.19     0.33   200.01     3  10:11        0.33
  5897                 JUNCTION     0.18     0.32   201.29     3  10:10        0.32
  5898                 JUNCTION     0.17     0.29   203.29     3  10:10        0.29
  5903                 JUNCTION     0.41     0.68   189.26     3  10:19        0.68
  5904                 JUNCTION     0.52     0.90   190.07     3  10:18        0.90
  5905                 JUNCTION     0.44     0.77   190.57     3  10:16        0.77
  5906                 JUNCTION     0.50     0.92   191.11     3  10:15        0.92
  5907                 JUNCTION     0.45     0.87   191.59     3  10:15        0.87
  5908                 JUNCTION     0.26     0.44   182.51     3  09:40        0.44
  5909                 JUNCTION     0.08     0.13   183.67     3  09:40        0.13
  5910                 JUNCTION     0.15     0.46   191.59     3  10:15        0.46
  5911                 JUNCTION     0.08     0.13   192.66     3  10:10        0.13
  5912                 JUNCTION     0.07     0.11   193.91     3  10:10        0.11
  5913                 JUNCTION     0.16     0.28   203.78     3  10:10        0.28
  5914                 JUNCTION     0.29     0.49   204.24     3  10:10        0.49
  5915                 JUNCTION     0.23     0.42   204.42     3  10:10        0.42
  5916                 JUNCTION     0.17     0.26   178.01     3  10:06        0.26
  5917                 JUNCTION     0.27     0.44   176.72     3  10:25        0.44
  5918                 JUNCTION     0.44     0.78   181.08     3  10:25        0.78
  5919                 JUNCTION     0.17     0.37   162.62     3  10:37        0.37
  5920                 JUNCTION     0.25     0.41   163.13     3  09:01        0.41
  5921                 JUNCTION     0.22     0.36   163.74     3  09:46        0.36
  5922                 JUNCTION     0.22     0.36   164.22     3  09:44        0.36
  5923                 JUNCTION     0.22     0.36   164.70     3  09:42        0.36
  5924                 JUNCTION     0.10     0.15   171.99     3  09:40        0.15
  5925                 JUNCTION     0.12     0.20   176.20     3  09:40        0.20
  5926                 JUNCTION     0.10     0.16   183.03     3  09:39        0.16
  5927                 JUNCTION     0.15     0.24   184.67     3  09:35        0.24
  5928                 JUNCTION     0.15     0.26   165.08     3  09:42        0.26
  5929                 JUNCTION     0.17     0.28   165.63     3  09:40        0.28
  5930                 JUNCTION     0.17     0.29   166.23     3  09:37        0.29
  5931                 JUNCTION     0.17     0.28   166.81     3  09:35        0.28
  5932                 JUNCTION     0.14     0.24   167.39     3  09:35        0.24
  5933                 JUNCTION     0.09     0.18   167.39     3  09:36        0.18
  5934                 JUNCTION     0.11     0.16   167.55     3  09:43        0.16
  5935                 JUNCTION     0.09     0.15   167.79     3  09:40        0.15
  5936                 JUNCTION     0.08     0.13   168.23     3  09:40        0.13
  5937                 JUNCTION     0.05     0.09   169.01     3  09:41        0.09
  5938                 JUNCTION     0.06     0.10   169.30     3  09:39        0.10
  5939                 JUNCTION     0.05     0.08   170.98     3  09:38        0.08
  5940                 JUNCTION     0.09     0.16   171.56     3  09:35        0.15
  5941                 JUNCTION     0.00     0.00   172.09     0  00:00        0.00
  5942                 JUNCTION     0.40     1.03   185.74     3  09:26        1.03
  5943                 JUNCTION     0.40     1.43   187.64     3  09:29        1.40
  5944                 JUNCTION     0.38     1.44   188.44     3  09:27        1.40
  5945                 JUNCTION     0.28     0.63   189.31     3  09:28        0.63
  5946                 JUNCTION     0.10     0.16   169.78     3  09:30        0.16
  5947                 JUNCTION     0.07     0.11   170.26     3  09:27        0.11
  5948                 JUNCTION     0.03     0.05   175.04     3  10:40        0.05
  5949                 JUNCTION     0.18     0.26   177.06     3  10:40        0.26
  5950                 JUNCTION     0.13     0.18   178.25     3  10:40        0.18
  5951                 JUNCTION     0.09     0.12   180.69     3  10:40        0.12
  5952                 JUNCTION     0.14     0.23   195.36     3  09:35        0.23
  5953                 JUNCTION     0.09     0.15   193.95     3  09:35        0.15
  5954                 JUNCTION     0.12     0.20   196.39     3  09:35        0.20
  5955                 JUNCTION     0.11     0.18   197.03     3  09:30        0.18
  5956                 JUNCTION     0.11     0.18   198.24     3  09:30        0.18
  5957                 JUNCTION     0.09     0.12   180.31     3  10:15        0.12
  5958                 JUNCTION     0.08     0.11   181.56     3  10:15        0.11
  5959                 JUNCTION     0.08     0.11   181.93     3  10:12        0.11
  5960                 JUNCTION     0.00     0.00   166.55     0  00:00        0.00
  5961                 JUNCTION     0.36     0.58   149.33     3  10:20        0.58
  5962                 JUNCTION     0.31     0.49   149.93     3  10:19        0.49
  5963                 JUNCTION     0.27     0.43   150.74     3  10:17        0.43
  5964                 JUNCTION     0.28     0.43   151.63     3  10:15        0.43
  5965                 JUNCTION     0.21     0.33   153.37     3  10:15        0.33
  5966                 JUNCTION     0.19     0.29   153.97     3  10:15        0.29
  5967                 JUNCTION     0.17     0.26   154.72     3  10:17        0.26
  5968                 JUNCTION     0.12     0.19   156.25     3  10:10        0.19
  5969                 JUNCTION     0.07     0.11   157.26     3  10:09        0.11
  5970                 JUNCTION     0.00     0.00   158.09     0  00:00        0.00
  5972                 JUNCTION     0.06     0.09   156.74     3  10:10        0.09
  5973                 JUNCTION     0.04     0.07   157.01     3  10:10        0.07
  5974                 JUNCTION     0.06     0.09   157.76     3  10:10        0.09
  5975                 JUNCTION     0.03     0.05   167.72     3  10:10        0.05
  5976                 JUNCTION     0.25     0.65   169.15     3  10:11        0.65
  5977                 JUNCTION     0.09     0.14   170.94     3  10:18        0.14
  5978                 JUNCTION     0.29     0.46   171.47     3  10:18        0.46
  5979                 JUNCTION     0.28     0.45   171.67     3  10:17        0.45
  5980                 JUNCTION     0.16     0.26   174.52     3  10:15        0.26
  5981                 JUNCTION     0.34     0.52   175.23     3  10:14        0.52
  5982                 JUNCTION     0.25     0.40   175.73     3  10:11        0.40
  5983                 JUNCTION     0.01     0.04   170.94     3  10:18        0.04
  5984                 JUNCTION     0.00     0.00   171.18     0  00:00        0.00
  5985                 JUNCTION     0.33     0.55   171.27     3  10:15        0.55
  5986                 JUNCTION     0.37     0.67   172.54     3  10:15        0.67
  5987                 JUNCTION     0.19     0.30   175.57     3  10:20        0.30
  5988                 JUNCTION     0.24     0.38   176.51     3  10:19        0.38
  5989                 JUNCTION     0.21     0.34   177.05     3  10:18        0.34
  5990                 JUNCTION     0.21     0.34   178.49     3  10:17        0.34
  5991                 JUNCTION     0.25     0.39   179.15     3  10:15        0.39
  5992                 JUNCTION     0.22     0.35   179.98     3  10:15        0.35
  5993                 JUNCTION     0.21     0.33   180.73     3  10:15        0.33
  5994                 JUNCTION     0.19     0.30   181.46     3  10:12        0.30
  5995                 JUNCTION     0.16     0.26   182.47     3  10:10        0.26
  5996                 JUNCTION     0.08     0.12   181.66     3  10:10        0.12
  5997                 JUNCTION     0.20     0.33   175.34     3  10:10        0.33
  5998                 JUNCTION     0.28     0.49   179.01     3  10:10        0.49
  5999                 JUNCTION     0.28     0.49   180.47     3  10:10        0.49
  6000                 JUNCTION     0.24     0.43   181.48     3  10:11        0.43
  6001                 JUNCTION     0.34     0.63   182.14     3  10:10        0.63
  6002                 JUNCTION     0.11     0.31   171.27     3  10:15        0.31
  6003                 JUNCTION     0.32     0.58   205.16     3  09:44        0.58
  6004                 JUNCTION     0.36     0.67   204.44     3  09:45        0.67
  6005                 JUNCTION     0.37     0.69   195.28     3  09:50        0.69
  6006                 JUNCTION     0.23     0.39   192.21     3  09:50        0.39
  6007                 JUNCTION     0.06     0.08   186.75     3  10:16        0.08
  6008                 JUNCTION     0.06     0.09   181.13     3  10:18        0.09
  6009                 JUNCTION     2.13    13.51   191.92     3  10:09       13.45
  6010                 JUNCTION     1.61     9.40   182.29     3  10:09        9.33
  6011                 JUNCTION     0.83     3.10   241.90     3  09:25        3.00
  6012                 JUNCTION     0.19     0.35   238.48     3  09:40        0.35
  6013                 JUNCTION     0.37     0.93   221.98     3  09:40        0.93
  6014                 JUNCTION     0.14     0.25   220.10     3  09:40        0.25
  6015                 JUNCTION     0.23     0.42   203.60     3  09:37        0.42
  6016                 JUNCTION     0.18     0.33   193.46     3  09:38        0.33
  6017                 JUNCTION     0.27     0.49   177.12     3  09:40        0.49
  6018                 JUNCTION     0.55     1.94   174.53     3  09:44        1.92
  6019                 JUNCTION     0.58     2.06   174.00     3  09:31        2.04
  6020                 JUNCTION     0.56     2.06   173.86     3  09:25        2.02
  6021                 JUNCTION     0.63     2.14   173.49     3  09:44        2.07
  6022                 JUNCTION     0.61     2.10   173.37     3  09:44        2.06
  6023                 JUNCTION     0.61     2.04   172.89     3  09:42        2.02
  6024                 JUNCTION     0.33     0.60   204.18     3  09:45        0.60
  6025                 JUNCTION     0.34     0.61   203.25     3  09:46        0.61
  6026                 JUNCTION     0.42     0.81   202.48     3  09:48        0.81
  6027                 JUNCTION     0.33     0.91   201.95     3  09:48        0.91
  6028                 JUNCTION     0.46     1.04   201.79     3  09:54        1.03
  6029                 JUNCTION     0.30     0.93   201.35     3  09:41        0.92
  6030                 JUNCTION     0.50     1.28   201.18     3  10:09        1.25
  6031                 JUNCTION     0.26     1.18   200.73     3  09:25        1.15
  6032                 JUNCTION     1.33     7.78   200.21     3  09:24        7.74
  6033                 JUNCTION     1.10     6.10   195.86     3  09:19        6.09
  6034                 JUNCTION     0.85     4.34   191.34     3  09:21        4.30
  6035                 JUNCTION     0.54     2.34   186.58     3  10:09        2.31
  6036                 JUNCTION     0.61     1.12   181.52     3  09:50        1.12
  6037                 JUNCTION     0.67     1.25   181.11     3  09:51        1.25
  6038                 JUNCTION     0.69     1.25   180.65     3  09:54        1.25
  6039                 JUNCTION     0.62     1.86   171.95     3  09:40        1.83
  6040                 JUNCTION     0.63     1.90   172.06     3  09:40        1.85
  6041                 JUNCTION     0.62     1.96   172.37     3  09:24        1.92
  6042                 JUNCTION     0.05     0.08   176.08     3  10:20        0.08
  6043                 JUNCTION     1.11     5.19   172.54     3  10:09        5.16
  6044                 JUNCTION     0.29     0.51   206.48     3  09:42        0.51
  6045                 JUNCTION     0.32     0.58   205.98     3  09:43        0.58
  6046                 JUNCTION     0.30     0.55   205.62     3  09:43        0.55
  6047                 JUNCTION     0.33     0.60   255.44     3  09:45        0.60
  6048                 JUNCTION     0.33     0.59   252.27     3  09:47        0.59
  6049                 JUNCTION     0.38     0.70   249.22     3  09:48        0.70
  6050                 JUNCTION     0.26     0.44   245.67     3  09:49        0.44
  6051                 JUNCTION     0.27     0.47   240.11     3  09:49        0.47
  6052                 JUNCTION     0.24     0.40   233.11     3  09:50        0.40
  6053                 JUNCTION     0.40     0.79   223.66     3  09:50        0.79
  6054                 JUNCTION     0.17     0.29   222.71     3  09:50        0.29
  6055                 JUNCTION     0.27     0.47   209.32     3  09:50        0.47
  6056                 JUNCTION     0.33     0.61   202.27     3  09:50        0.61
  6057                 JUNCTION     0.27     0.47   200.66     3  09:51        0.47
  6058                 JUNCTION     0.07     0.13   202.57     3  09:40        0.13
  6059                 JUNCTION     0.09     0.15   201.17     3  09:40        0.15
  6060                 JUNCTION     2.75    21.49   224.96     3  10:04       21.43
  6061                 JUNCTION     2.73    21.90   224.80     3  10:01       21.86
  6062                 JUNCTION     3.23    24.46   224.56     3  10:01       24.40
  6063                 JUNCTION     3.91    27.86   223.31     3  10:09       27.80
  6064                 JUNCTION     4.74    31.26   221.61     3  10:03       31.21
  6065                 JUNCTION     5.03    32.17   220.52     3  10:01       32.11
  6066                 JUNCTION     5.41    33.11   219.42     3  10:04       33.06
  6067                 JUNCTION     5.95    33.78   218.38     3  10:03       33.72
  6068                 JUNCTION     5.28    30.24   214.01     3  10:09       30.18
  6069                 JUNCTION     4.81    27.71   210.96     3  10:09       27.64
  6070                 JUNCTION     0.00     0.00   212.10     0  00:00        0.00
  6071                 JUNCTION     2.75    17.58   199.06     3  10:09       17.53
  6072                 JUNCTION     0.23     0.40   220.40     3  09:50        0.40
  6073                 JUNCTION     0.24     0.42   217.50     3  09:50        0.42
  6074                 JUNCTION     0.29     0.51   256.63     3  09:45        0.51
  6075                 JUNCTION     0.05     0.07   199.84     3  10:15        0.07
  6076                 JUNCTION     0.04     0.06   208.74     3  10:15        0.06
  6077                 JUNCTION     0.05     0.07   216.71     3  10:15        0.07
  6078                 JUNCTION     0.08     0.11   218.04     3  10:10        0.11
  6079                 JUNCTION     0.00     0.00   229.88     0  00:00        0.00
  6080                 JUNCTION     0.40     0.64   218.85     3  08:28        0.64
  6081                 JUNCTION     0.25     0.41   218.45     3  08:32        0.41
  6082                 JUNCTION     0.29     0.50   218.20     3  08:24        0.50
  6083                 JUNCTION     0.27     0.46   215.46     3  08:25        0.46
  6084                 JUNCTION     0.30     0.52   213.71     3  08:24        0.52
  6085                 JUNCTION     0.30     0.50   211.13     3  08:25        0.50
  6086                 JUNCTION     0.30     0.51   204.18     3  08:25        0.51
  6087                 JUNCTION     0.36     0.61   201.02     3  08:25        0.61
  6088                 JUNCTION     0.36     0.61   198.50     3  08:25        0.61
  6089                 JUNCTION     0.41     0.73   196.62     3  08:25        0.73
  6090                 JUNCTION     0.38     0.65   196.29     3  08:25        0.65
  6091                 JUNCTION     0.20     0.32   211.04     3  08:20        0.32
  6092                 JUNCTION     0.20     0.32   209.56     3  08:20        0.32
  6093                 JUNCTION     0.36     0.63   210.90     3  08:27        0.63
  6094                 JUNCTION     0.35     0.59   210.08     3  08:28        0.59
  6095                 JUNCTION     0.42     0.74   208.72     3  08:29        0.74
  6096                 JUNCTION     0.32     0.55   200.58     3  10:03        0.55
  6097                 JUNCTION     0.61     1.17   197.81     3  10:05        1.16
  6098                 JUNCTION     0.20     0.33   207.95     3  08:29        0.33
  6099                 JUNCTION     0.24     0.40   204.38     3  08:29        0.40
  6100                 JUNCTION     0.28     0.47   202.47     3  08:30        0.47
  6101                 JUNCTION     0.37     0.63   199.15     3  08:30        0.63
  6102                 JUNCTION     0.29     0.48   198.07     3  08:31        0.48
  6103                 JUNCTION     0.35     0.58   195.44     3  08:30        0.58
  6104                 JUNCTION     0.18     0.29   207.21     3  08:20        0.29
  6105                 JUNCTION     0.18     0.28   203.69     3  08:20        0.28
  6106                 JUNCTION     0.27     0.45   200.44     3  08:21        0.45
  6107                 JUNCTION     0.14     0.22   199.15     3  08:22        0.22
  6108                 JUNCTION     0.27     0.44   192.13     3  08:30        0.44
  6109                 JUNCTION     0.68     1.18   197.46     3  10:06        1.18
  6110                 JUNCTION     0.42     0.79   196.59     3  10:08        0.79
  6111                 JUNCTION     0.38     0.68   196.17     3  10:08        0.68
  6112                 JUNCTION     0.37     0.64   193.71     3  10:09        0.64
  6113                 JUNCTION     0.14     0.25   187.48     3  10:10        0.25
  6114                 JUNCTION     0.24     0.42   183.26     3  10:10        0.42
  6115                 JUNCTION     0.21     0.36   182.74     3  10:11        0.36
  6116                 JUNCTION     0.22     0.38   180.33     3  10:12        0.38
  6117                 JUNCTION     0.22     0.35   182.46     3  10:10        0.35
  6118                 JUNCTION     0.25     0.39   182.20     3  10:11        0.39
  6119                 JUNCTION     0.23     0.39   178.85     3  10:14        0.39
  6120                 JUNCTION     0.23     0.40   177.35     3  10:15        0.40
  6121                 JUNCTION     0.26     0.42   176.22     3  10:15        0.42
  6122                 JUNCTION     0.14     0.21   180.70     3  10:12        0.21
  6123                 JUNCTION     0.25     0.41   176.27     3  10:15        0.41
  6124                 JUNCTION     0.55     1.07   201.47     3  10:02        1.07
  6125                 JUNCTION     0.69     1.17   201.37     3  10:02        1.17
  6126                 JUNCTION     0.18     0.30   182.55     3  10:10        0.30
  6127                 JUNCTION     0.24     0.47   195.47     3  09:05        0.47
  6128                 JUNCTION     0.37     0.63   219.11     3  08:27        0.63
  6129                 JUNCTION     0.12     0.23   213.73     3  09:40        0.23
  6130                 JUNCTION     0.16     0.29   211.29     3  09:40        0.29
  6131                 JUNCTION     0.17     0.32   209.32     3  09:44        0.32
  6132                 JUNCTION     0.34     0.69   210.96     3  09:40        0.69
  6133                 JUNCTION     0.32     0.66   210.11     3  09:45        0.66
  6134                 JUNCTION     0.39     0.76   205.37     3  09:45        0.76
  6136                 JUNCTION     0.45     0.90   198.26     3  09:46        0.90
  6137                 JUNCTION     0.18     0.35   206.85     3  09:43        0.35
  6138                 JUNCTION     0.18     0.34   205.56     3  09:45        0.34
  6139                 JUNCTION     0.20     0.37   202.93     3  09:45        0.37
  6140                 JUNCTION     0.18     0.33   200.48     3  09:45        0.33
  6141                 JUNCTION     0.09     0.17   196.60     3  09:37        0.17
  6142                 JUNCTION     0.36     0.72   191.92     3  09:48        0.72
  6143                 JUNCTION     0.44     0.85   185.96     3  09:48        0.85
  6145                 JUNCTION     0.10     0.18   222.56     3  09:40        0.18
  6146                 JUNCTION     0.12     0.23   218.46     3  09:45        0.23
  6147                 JUNCTION     0.00     0.00   274.01     0  00:00        0.00
  6148                 JUNCTION     0.00     0.00   263.78     0  00:00        0.00
  6149                 JUNCTION     0.00     0.00   244.39     0  00:00        0.00
  6150                 JUNCTION     0.00     0.00   236.61     0  00:00        0.00
  6151                 JUNCTION     0.02     0.04   222.17     3  09:40        0.04
  6152                 JUNCTION     0.07     0.12   219.19     3  09:40        0.12
  6153                 JUNCTION     0.07     0.12   212.57     3  09:40        0.12
  6154                 JUNCTION     0.10     0.18   203.83     3  09:40        0.18
  6155                 JUNCTION     0.09     0.17   201.62     3  09:40        0.17
  6156                 JUNCTION     0.12     0.22   197.75     3  09:41        0.22
  6157                 JUNCTION     0.14     0.25   195.05     3  09:42        0.25
  6158                 JUNCTION     0.14     0.25   193.28     3  09:44        0.25
  6159                 JUNCTION     0.14     0.25   190.59     3  09:45        0.25
  6160                 JUNCTION     0.23     0.42   188.48     3  09:45        0.42
  6161                 JUNCTION     0.27     0.49   184.49     3  09:45        0.49
  6163                 JUNCTION     0.42     0.81   184.15     3  09:49        0.81
  6164                 JUNCTION     0.44     0.87   181.87     3  09:50        0.87
  6165                 JUNCTION     0.40     0.78   180.93     3  09:50        0.78
  6166                 JUNCTION     0.46     0.87   179.56     3  09:50        0.87
  6167                 JUNCTION     0.09     0.16   177.66     3  09:39        0.16
  6168                 JUNCTION     0.09     0.16   176.30     3  09:45        0.16
  6169                 JUNCTION     0.31     0.84   174.52     3  09:50        0.84
  6170                 JUNCTION     0.45     0.87   173.95     3  09:51        0.87
  6171                 JUNCTION     0.45     0.87   171.57     3  09:52        0.87
  6172                 JUNCTION     0.51     0.99   168.92     3  09:52        0.99
  6173                 JUNCTION     0.27     0.51   183.56     3  09:45        0.51
  6174                 JUNCTION     0.27     0.51   182.73     3  09:45        0.51
  6175                 JUNCTION     0.28     0.52   181.81     3  09:45        0.52
  6176                 JUNCTION     0.28     0.51   180.57     3  09:46        0.51
  6177                 JUNCTION     0.29     0.54   178.44     3  09:46        0.54
  6178                 JUNCTION     0.29     0.55   177.26     3  09:46        0.55
  6179                 JUNCTION     0.29     0.53   176.46     3  09:47        0.53
  6180                 JUNCTION     0.33     0.62   175.11     3  09:48        0.62
  6181                 JUNCTION     0.24     0.43   173.43     3  09:49        0.43
  6182                 JUNCTION     0.55     1.05   168.47     3  09:51        1.05
  6183                 JUNCTION     0.63     1.19   167.28     3  09:51        1.19
  6184                 JUNCTION     0.00     0.00   164.75     0  00:00        0.00
  6185                 JUNCTION     0.14     0.24   163.87     3  09:45        0.24
  6186                 JUNCTION     0.14     0.21   163.79     3  09:45        0.21
  6187                 JUNCTION     0.60     1.18   162.88     3  09:55        1.18
  6188                 JUNCTION     0.82     1.62   162.49     3  09:56        1.62
  6189                 JUNCTION     0.54     1.00   161.34     3  09:55        1.00
  6190                 JUNCTION     0.70     1.46   160.74     3  09:56        1.46
  6192                 JUNCTION     0.74     1.45   159.61     3  09:58        1.45
  6193                 JUNCTION     0.68     1.36   158.97     3  09:55        1.36
  6194                 JUNCTION     0.74     1.48   158.25     3  09:55        1.48
  6195                 JUNCTION     0.73     1.49   157.65     3  09:56        1.49
  6196                 JUNCTION     0.73     1.47   157.02     3  09:56        1.47
  6197                 JUNCTION     0.74     1.52   156.39     3  10:00        1.52
  6198                 JUNCTION     0.81     1.63   155.84     3  09:57        1.63
  6199                 JUNCTION     0.80     1.60   155.02     3  09:58        1.60
  6200                 JUNCTION     0.79     1.58   154.21     3  09:59        1.58
  6201                 JUNCTION     0.84     1.67   153.36     3  10:00        1.67
  6202                 JUNCTION     0.23     0.46   156.85     3  09:54        0.46
  6203                 JUNCTION     0.33     0.92   164.83     3  09:41        0.92
  6204                 JUNCTION     0.36     0.89   163.71     3  09:41        0.89
  6205                 JUNCTION     0.23     0.46   162.12     3  09:45        0.46
  6206                 JUNCTION     0.47     1.27   159.52     3  09:48        1.24
  6207                 JUNCTION     0.19     0.34   175.63     3  09:45        0.34
  6208                 JUNCTION     0.23     0.43   172.37     3  09:45        0.43
  6209                 JUNCTION     0.16     0.30   169.99     3  09:45        0.30
  6210                 JUNCTION     0.13     0.23   186.19     3  09:45        0.23
  6211                 JUNCTION     0.15     0.27   180.19     3  09:45        0.27
  6212                 JUNCTION     0.14     0.25   216.26     3  09:45        0.25
  6213                 JUNCTION     0.13     0.25   213.95     3  09:45        0.25
  6214                 JUNCTION     0.14     0.27   205.07     3  09:45        0.27
  6215                 JUNCTION     0.10     0.18   194.01     3  09:45        0.18
  6216                 JUNCTION     0.05     0.05   266.45     0  00:02        0.05
  6217                 JUNCTION     0.09     0.13   258.18     3  12:56        0.13
  6218                 JUNCTION     0.09     0.13   256.13     3  12:58        0.13
  6219                 JUNCTION     0.12     0.17   242.17     3  13:00        0.17
  6220                 JUNCTION     0.13     0.19   238.63     3  13:00        0.19
  6221                 JUNCTION     0.14     0.21   234.71     3  13:00        0.21
  6222                 JUNCTION     0.11     0.15   228.87     3  13:00        0.15
  6223                 JUNCTION     0.12     0.17   220.17     3  13:01        0.17
  6224                 JUNCTION     0.20     0.30   212.78     3  13:02        0.30
  6225                 JUNCTION     0.13     0.18   212.36     3  13:00        0.18
  6226                 JUNCTION     0.14     0.20   204.29     3  13:24        0.20
  6227                 JUNCTION     0.14     0.21   197.67     3  13:24        0.21
  6228                 JUNCTION     0.13     0.19   189.44     3  13:25        0.19
  6229                 JUNCTION     0.15     0.22   184.40     3  13:00        0.22
  6230                 JUNCTION     0.18     0.28   173.14     3  13:00        0.28
  6231                 JUNCTION     0.18     0.28   166.75     3  13:00        0.28
  6232                 JUNCTION     0.25     0.39   158.98     3  13:00        0.39
  6240                 JUNCTION     0.00     0.00   246.30     0  00:00        0.00
  6241                 JUNCTION     0.00     0.00   245.37     0  03:50        0.00
  6242                 JUNCTION     0.04     0.07   241.46     3  09:40        0.07
  6243                 JUNCTION     0.04     0.07   235.12     3  09:45        0.07
  6244                 JUNCTION     0.10     0.18   231.37     3  09:45        0.18
  6245                 JUNCTION     0.08     0.14   228.17     3  09:45        0.14
  6246                 JUNCTION     0.15     0.28   224.79     3  09:45        0.28
  6247                 JUNCTION     0.13     0.23   224.17     3  09:45        0.23
  6248                 JUNCTION     0.14     0.25   223.37     3  09:45        0.25
  6249                 JUNCTION     0.21     0.38   221.36     3  09:45        0.38
  6250                 JUNCTION     0.22     0.40   218.10     3  09:45        0.40
  6251                 JUNCTION     0.07     0.13   214.77     3  09:40        0.13
  6279                 JUNCTION     0.00     0.00   249.07     0  00:00        0.00
  6280                 JUNCTION     0.00     0.00   253.99     0  00:00        0.00
  6281                 JUNCTION     0.00     0.00   260.16     0  00:00        0.00
  6282                 JUNCTION     0.00     0.00   271.39     0  00:00        0.00
  6283                 JUNCTION     0.00     0.00   273.63     0  00:00        0.00
  6284                 JUNCTION     0.00     0.00   280.14     0  00:00        0.00
  6285                 JUNCTION     0.00     0.00   284.36     0  00:00        0.00
  6286                 JUNCTION     0.00     0.00   292.43     0  00:00        0.00
  6287                 JUNCTION     0.00     0.00   295.94     0  00:00        0.00
  6288                 JUNCTION     0.00     0.00   297.67     0  00:00        0.00
  6293                 JUNCTION     1.35     2.29   153.57     3  10:47        2.29
  6294                 JUNCTION     1.38     2.40   151.96     3  10:50        2.40
  6295                 JUNCTION     0.86     1.75   147.97     3  10:07        1.75
  6296                 JUNCTION     0.72     1.38   146.29     3  10:05        1.38
  6297                 JUNCTION     0.07     0.12   172.02     3  09:40        0.12
  6298                 JUNCTION     0.15     0.26   169.80     3  09:41        0.26
  6299                 JUNCTION     0.16     0.28   168.32     3  09:45        0.28
  6300                 JUNCTION     0.12     0.20   167.24     3  09:45        0.20
  6301                 JUNCTION     0.16     0.28   159.32     3  09:45        0.28
  6302                 JUNCTION     0.18     0.31   157.42     3  09:46        0.31
  6303                 JUNCTION     0.13     0.23   156.24     3  09:47        0.23
  6304                 JUNCTION     0.14     0.25   153.41     3  09:48        0.25
  6305                 JUNCTION     0.12     0.21   150.21     3  09:49        0.21
  6306                 JUNCTION     1.15     2.27   145.85     3  10:09        2.27
  6307                 JUNCTION     0.86     1.89   145.30     3  10:10        1.89
  6308                 JUNCTION     1.13     2.34   144.64     3  10:10        2.34
  6309                 JUNCTION     0.29     0.53   142.56     3  10:10        0.53
  6310                 JUNCTION     1.10     2.13   142.13     3  10:45        2.13
  6311                 JUNCTION     0.80     1.32   142.51     3  10:57        1.32
  6312                 JUNCTION     1.10     1.89   140.58     3  10:46        1.89
  6313                 JUNCTION     1.65     3.25   140.02     3  10:59        3.25
  6314                 JUNCTION     1.88     4.11   139.30     3  11:01        4.11
  6315                 JUNCTION     2.18     4.71   138.71     3  11:01        4.71
  6316                 JUNCTION     1.47     2.54   151.20     3  10:47        2.54
  6317                 JUNCTION     1.41     2.44   150.38     3  10:48        2.44
  6318                 JUNCTION     1.45     2.52   149.06     3  10:51        2.52
  6319                 JUNCTION     1.55     2.74   147.90     3  10:55        2.74
  6320                 JUNCTION     1.51     2.67   147.67     3  10:55        2.67
  6321                 JUNCTION     1.57     2.77   146.80     3  10:56        2.77
  6322                 JUNCTION     1.63     2.80   146.16     3  10:55        2.80
  6323                 JUNCTION     1.50     2.56   145.26     3  10:56        2.56
  6324                 JUNCTION     2.40     4.87   138.53     3  11:01        4.87
  6325                 JUNCTION     2.34     4.78   138.35     3  11:02        4.78
  6326                 JUNCTION     2.38     4.75   137.83     3  11:02        4.75
  6327                 JUNCTION     0.74     1.19   153.70     3  10:13        1.19
  6328                 JUNCTION     0.57     0.91   153.40     3  10:14        0.91
  6329                 JUNCTION     0.74     1.22   163.38     3  10:00        1.22
  6330                 JUNCTION     0.66     1.11   162.87     3  10:01        1.11
  6331                 JUNCTION     0.71     1.20   164.00     3  09:58        1.20
  6332                 JUNCTION     0.72     1.20   164.56     3  09:56        1.20
  6333                 JUNCTION     0.73     1.25   165.15     3  09:54        1.25
  6334                 JUNCTION     0.74     1.25   164.99     3  09:55        1.24
  6335                 JUNCTION     0.70     1.20   165.59     3  09:53        1.19
  6336                 JUNCTION     0.45     0.73   167.24     3  09:51        0.73
  6337                 JUNCTION     0.50     0.84   168.74     3  09:50        0.83
  6338                 JUNCTION     0.51     0.85   169.93     3  09:48        0.85
  6339                 JUNCTION     0.41     0.66   154.83     3  10:13        0.66
  6340                 JUNCTION     0.79     1.34   156.31     3  10:12        1.34
  6341                 JUNCTION     0.71     1.23   156.96     3  10:11        1.22
  6342                 JUNCTION     0.72     1.23   157.51     3  10:10        1.22
  6343                 JUNCTION     0.75     1.27   158.31     3  10:09        1.27
  6344                 JUNCTION     0.74     1.27   159.12     3  10:07        1.26
  6345                 JUNCTION     0.72     1.25   159.58     3  10:06        1.25
  6346                 JUNCTION     0.73     1.24   160.18     3  10:05        1.24
  6347                 JUNCTION     0.70     1.22   160.53     3  10:05        1.21
  6348                 JUNCTION     0.70     1.19   160.97     3  10:04        1.19
  6349                 JUNCTION     0.72     1.22   161.23     3  10:04        1.22
  6350                 JUNCTION     0.65     1.13   161.47     3  10:03        1.13
  6351                 JUNCTION     0.70     1.16   162.16     3  10:02        1.15
  6352                 JUNCTION     0.23     0.36   139.98     3  10:28        0.36
  6353                 JUNCTION     1.02     1.67   141.45     3  10:27        1.67
  6354                 JUNCTION     0.79     1.27   142.13     3  10:26        1.27
  6355                 JUNCTION     0.85     1.39   142.69     3  10:25        1.39
  6356                 JUNCTION     0.95     1.54   143.02     3  10:24        1.54
  6357                 JUNCTION     0.90     1.51   143.48     3  10:23        1.50
  6358                 JUNCTION     0.55     0.89   148.02     3  10:18        0.89
  6359                 JUNCTION     0.72     1.17   146.89     3  10:19        1.17
  6360                 JUNCTION     0.60     1.00   148.72     3  10:17        1.00
  6361                 JUNCTION     0.54     0.89   149.28     3  10:16        0.89
  6362                 JUNCTION     0.58     0.95   151.16     3  10:15        0.95
  6363                 JUNCTION     0.59     0.97   151.64     3  10:14        0.97
  6364                 JUNCTION     0.72     1.22   164.90     3  09:55        1.21
  6365                 JUNCTION     0.41     0.70   170.19     3  10:19        0.70
  6366                 JUNCTION     0.38     0.63   171.51     3  10:18        0.63
  6367                 JUNCTION     0.39     0.65   173.32     3  10:17        0.65
  6368                 JUNCTION     0.25     0.42   179.53     3  10:16        0.42
  6369                 JUNCTION     0.27     0.48   147.76     3  09:50        0.48
  6371                 JUNCTION     0.32     0.56   150.44     3  09:49        0.56
  6372                 JUNCTION     0.28     0.49   154.57     3  09:49        0.49
  6373                 JUNCTION     0.60     1.11   155.90     3  09:48        1.11
  6374                 JUNCTION     0.55     1.09   156.09     3  09:47        1.09
  6375                 JUNCTION     0.59     1.12   156.48     3  09:45        1.12
  6376                 JUNCTION     0.31     0.55   159.69     3  09:45        0.55
  6377                 JUNCTION     0.34     0.61   163.09     3  09:45        0.61
  6378                 JUNCTION     0.31     0.55   166.23     3  09:45        0.55
  6379                 JUNCTION     0.21     0.37   171.60     3  09:44        0.37
  6380                 JUNCTION     0.23     0.40   170.29     3  09:44        0.40
  6381                 JUNCTION     0.28     0.49   177.65     3  09:43        0.49
  6382                 JUNCTION     0.25     0.45   187.11     3  09:42        0.45
  6383                 JUNCTION     0.29     0.53   192.65     3  09:41        0.53
  6384                 JUNCTION     0.28     0.51   198.05     3  09:40        0.51
  6385                 JUNCTION     0.28     0.50   200.94     3  09:40        0.50
  6386                 JUNCTION     0.28     0.50   207.24     3  09:40        0.50
  6387                 JUNCTION     0.28     0.51   212.19     3  09:40        0.51
  6388                 JUNCTION     0.28     0.50   216.24     3  09:40        0.50
  6389                 JUNCTION     0.33     0.61   217.68     3  09:39        0.61
  6390                 JUNCTION     0.29     0.51   219.24     3  09:37        0.51
  6391                 JUNCTION     0.47     0.91   220.56     3  09:35        0.91
  6392                 JUNCTION     0.21     0.37   225.29     3  09:35        0.37
  6393                 JUNCTION     0.21     0.38   230.40     3  09:35        0.38
  6394                 JUNCTION     0.19     0.33   236.46     3  09:33        0.33
  6395                 JUNCTION     0.20     0.36   239.60     3  09:31        0.36
  6396                 JUNCTION     0.22     0.39   242.43     3  09:30        0.39
  6397                 JUNCTION     0.22     0.40   243.78     3  09:29        0.40
  6398                 JUNCTION     0.05     0.08   244.66     3  09:30        0.08
  6400                 JUNCTION     0.24     0.38   152.11     3  10:54        0.38
  6401                 JUNCTION     0.43     0.73   154.80     3  10:33        0.73
  6402                 JUNCTION     0.25     0.41   159.32     3  10:01        0.41
  6403                 JUNCTION     0.41     0.70   161.26     3  09:57        0.70
  6404                 JUNCTION     0.37     0.62   163.10     3  09:53        0.62
  6405                 JUNCTION     0.37     0.63   163.88     3  09:52        0.63
  6406                 JUNCTION     0.50     0.82   164.10     3  09:52        0.82
  6407                 JUNCTION     0.30     0.50   165.90     3  09:51        0.50
  6408                 JUNCTION     0.28     0.47   166.86     3  09:50        0.47
  6409                 JUNCTION     0.44     0.79   168.17     3  09:50        0.79
  6410                 JUNCTION     0.33     0.55   168.68     3  09:50        0.55
  6411                 JUNCTION     0.17     0.30   176.31     3  09:44        0.30
  6412                 JUNCTION     0.20     0.35   171.36     3  09:45        0.35
  6413                 JUNCTION     0.28     0.79   166.28     3  09:43        0.79
  6414                 JUNCTION     0.34     0.92   165.64     3  09:42        0.91
  6415                 JUNCTION     0.23     0.41   163.55     3  09:44        0.41
  6416                 JUNCTION     0.09     0.15   157.24     3  09:30        0.15
  6417                 JUNCTION     0.08     0.13   160.98     3  09:30        0.13
  6418                 JUNCTION     0.08     0.13   166.39     3  09:30        0.13
  6419                 JUNCTION     0.07     0.12   172.66     3  09:30        0.12
  6420                 JUNCTION     0.30     0.52   155.39     3  09:40        0.52
  6421                 JUNCTION     0.31     0.57   159.02     3  09:41        0.57
  6422                 JUNCTION     0.25     0.45   166.76     3  09:40        0.45
  6423                 JUNCTION     0.28     0.50   171.48     3  09:40        0.50
  6424                 JUNCTION     0.40     0.79   172.48     3  09:39        0.79
  6425                 JUNCTION     0.32     0.58   173.39     3  09:38        0.58
  6426                 JUNCTION     0.32     0.59   175.45     3  09:37        0.59
  6427                 JUNCTION     0.21     0.36   187.38     3  09:36        0.36
  6428                 JUNCTION     0.27     0.50   190.24     3  09:35        0.50
  6429                 JUNCTION     0.25     0.44   194.96     3  09:35        0.44
  6430                 JUNCTION     0.21     0.36   203.54     3  09:35        0.36
  6431                 JUNCTION     0.22     0.41   204.76     3  09:35        0.41
  6432                 JUNCTION     0.19     0.34   213.36     3  09:35        0.34
  6433                 JUNCTION     0.45     1.33   215.36     3  10:10        1.23
  6434                 JUNCTION     0.34     1.20   215.46     3  10:10        1.12
  6435                 JUNCTION     0.27     0.58   215.65     3  09:35        0.58
  6436                 JUNCTION     0.09     0.16   160.16     3  09:35        0.16
  6437                 JUNCTION     0.12     0.20   161.95     3  09:35        0.20
  6438                 JUNCTION     0.16     0.27   162.77     3  09:34        0.27
  6439                 JUNCTION     0.06     0.10   173.60     3  09:31        0.10
  6440                 JUNCTION     0.07     0.11   185.86     3  09:30        0.11
  6441                 JUNCTION     0.06     0.11   194.11     3  09:30        0.11
  6442                 JUNCTION     0.05     0.08   199.08     3  09:30        0.08
  6443                 JUNCTION     0.04     0.07   203.07     3  09:30        0.07
  6444                 JUNCTION     0.03     0.05   213.30     3  09:30        0.05
  6445                 JUNCTION     0.34     0.57   155.47     3  13:20        0.57
  6446                 JUNCTION     0.38     0.65   155.12     3  13:18        0.65
  6447                 JUNCTION     0.23     0.37   174.02     3  09:50        0.37
  6448                 JUNCTION     0.22     0.34   177.17     3  09:50        0.34
  6449                 JUNCTION     0.24     0.38   181.24     3  09:50        0.38
  6450                 JUNCTION     0.30     0.48   168.98     3  09:55        0.48
  6451                 JUNCTION     0.37     0.61   170.31     3  09:55        0.61
  6452                 JUNCTION     0.37     0.62   170.82     3  09:55        0.62
  6453                 JUNCTION     0.37     0.62   171.26     3  09:55        0.62
  6454                 JUNCTION     0.34     0.55   173.05     3  09:53        0.55
  6455                 JUNCTION     0.33     0.53   171.76     3  09:54        0.53
  6456                 JUNCTION     0.33     0.54   173.62     3  09:53        0.54
  6457                 JUNCTION     0.29     0.47   176.45     3  09:52        0.47
  6458                 JUNCTION     0.35     0.59   178.82     3  09:50        0.59
  6459                 JUNCTION     0.33     0.53   178.64     3  09:50        0.53
  6460                 JUNCTION     0.29     0.48   182.32     3  09:49        0.48
  6461                 JUNCTION     0.34     0.58   184.70     3  09:48        0.58
  6462                 JUNCTION     0.30     0.50   184.46     3  09:48        0.50
  6463                 JUNCTION     0.28     0.46   188.25     3  09:47        0.46
  6464                 JUNCTION     0.79     1.59   152.46     3  10:01        1.59
  6465                 JUNCTION     0.82     1.64   151.50     3  10:02        1.64
  6466                 JUNCTION     0.83     1.71   150.51     3  10:04        1.71
  6467                 JUNCTION     0.88     1.82   149.93     3  10:05        1.82
  6468                 JUNCTION     0.84     1.75   149.51     3  10:05        1.75
  6469                 JUNCTION     0.86     1.82   148.99     3  10:05        1.82
  6470                 JUNCTION     0.89     1.86   148.53     3  10:06        1.86
  6471                 JUNCTION     0.04     0.06   191.02     3  10:09        0.06
  6472                 JUNCTION     0.19     0.29   184.47     3  10:07        0.29
  6473                 JUNCTION     0.19     0.29   184.18     3  10:09        0.29
  6474                 JUNCTION     0.20     0.31   183.87     3  10:10        0.31
  6475                 JUNCTION     1.31     2.22   159.55     3  10:41        2.22
  6476                 JUNCTION     1.39     2.37   158.38     3  10:40        2.37
  6477                 JUNCTION     1.35     2.32   157.77     3  10:37        2.32
  6478                 JUNCTION     1.45     2.43   156.72     3  10:40        2.43
  6479                 JUNCTION     1.27     2.17   156.06     3  10:42        2.17
  6480                 JUNCTION     1.53     2.63   155.26     3  10:45        2.63
[...]
  1911                        0.01      0.01      0.01      6.71         0.01
  1913                        0.01      0.01      0.01     16.78         0.01
  1922                        0.01      0.01      8.14      0.01         0.01
  1949                        0.01      0.01     19.32      0.01         0.01
  1951                       14.74     15.97     14.74     38.09        13.67
  20014                       0.01      0.01     98.00     27.80         0.01
  20022                       0.01      0.01     10.06      0.01         0.01
  2059                        0.01      0.01     90.38      0.01         0.01
  2060                        0.01      0.01     96.90      0.01         0.01
  2118                        0.01      0.01     17.23      0.01         0.01
  267                         0.01      0.01      6.44      0.01         0.01
  268                         0.01      3.20      0.01      2.08         0.01
  376                         0.01      0.01      5.62      0.01         0.01
  407                         0.01      0.01      0.01     75.00         0.01
  444                         0.01      0.01     77.81     21.33         0.01
  451                         0.01      4.43      0.01      4.32         0.01
  464                         0.01      0.01      0.01      3.98         0.01
  465                         0.01      0.01      0.01      3.03         0.01
  477                         0.01      0.01      2.05      0.01         0.01
  478                         0.71      2.05      0.71      7.46         0.71
  479                         2.08      2.08     34.33      0.01         0.01
  485                         0.01      0.01      0.01      8.70         0.01
  487                         0.01      0.01     13.55      0.01         0.01
  494                         0.01      0.01      1.10      0.01         0.01
  504                         0.01      0.01      0.01     23.21         0.01
  513                         0.01      0.01      0.01      2.98         0.01
  514                         0.01      0.01      6.77      0.01         0.01
  516                         0.01      0.01      0.01      2.22         0.01
  518                         0.01      0.01      0.01      1.99         0.01
  521                         0.01      0.01      0.01      2.38         0.01
  522                         0.01      0.01      0.01      2.34         0.01
  523                         0.01      0.01      0.01      3.08         0.01
  525                         0.01      0.01      5.17      0.01         0.01
  531                         0.01      0.01      0.01     12.06         0.01
  535                         0.01      0.01      1.89      0.01         0.01
  536                         1.89      1.89      9.69      0.01         0.01
  537                         0.01      0.01     11.08      0.01         0.01
  545                         0.01      0.01      5.93      0.01         0.01
  546                         0.01      5.93      0.01      5.75         0.01
  547                         0.01      0.01     52.11      0.01         0.01
  555                         0.01      0.01      0.01      1.99         0.01
  570                         0.01      0.01      4.66      0.01         0.01
  572                         0.01      0.01      0.01      4.89         0.01
  590                         0.01      0.01      0.01      4.53         0.01
  594                         0.01      0.01      2.44      0.01         0.01
  601                         0.01      0.01     74.98      0.01         0.01
  604                         0.01      0.01     71.03      0.01         0.01
  629                         0.01      2.84      0.01      4.14         0.01
  630                         2.73      3.31      2.84      4.13         2.73
  631                         2.81      2.81      3.31      0.01         1.05
  632                         0.01      0.01      2.81      0.01         0.01
  637                         0.01      0.01      0.01      4.39         0.01
  638                         0.01      0.01     77.44      0.01         0.01
  647                         0.01      0.01     35.85      0.01         0.01
  680                         0.01      0.01      2.54      0.01         0.01
  699                         0.01      0.01     14.76      0.01         0.01
  703                         8.08      8.08      8.49      7.76         7.71
  704                         0.01     11.47      0.01     10.25         0.01
  705                         0.01      0.01      2.23      0.01         0.01
  706                         0.01      2.23      0.01      0.01         0.01
  710                         0.01      0.01      2.43      0.01         0.01
  711                         2.43      2.43      3.11      0.01         0.01
  712                         3.11      3.11      3.21      0.01         0.88
  713                         3.21      3.21      3.71      0.01         0.01
  714                         3.67      3.71      3.67      1.54         3.01
  715                         3.67      3.67      3.94      1.58         2.05
  719                         0.01      0.01      0.01      3.96         0.01
  720                         2.73      2.73      3.26      0.01         0.01
  721                         2.76      3.26      2.76      4.39         2.76
  722                         2.76      2.76      5.13      0.01         0.01
  723                         3.22      5.13      3.22      4.31         3.22
  724                         3.22      3.22      7.12      0.01         0.01
  725                         7.43      7.43      7.57      7.28         7.35
  726                         7.57      7.57      7.78      7.72         7.56
  727                         5.96      7.78      5.96      8.07         5.96
  728                         5.96      5.96     15.24      5.49         5.58
  730                         0.01      0.01      5.33      0.01         0.01
  732                         4.35      4.35      4.43      3.62         4.26
  733                         4.35      4.39      4.35      2.27         3.64
  734                         4.27      4.27      4.39      2.26         3.10
  735                         3.94      3.94      4.27      2.18         2.64
  736                         0.01      0.01      2.73      0.01         0.01
  740                         0.01      9.06      0.01      7.70         0.01
  741                         8.49      8.49      9.06      7.71         7.71
  7472                        0.01      0.01      0.01     24.80         0.01
  7557                       65.01     65.07     97.78     28.84        28.23
  7560                       97.77     97.78     97.98      0.01         0.01
  7562                       23.51     23.51     97.98      0.01         0.01
  7564                        4.65      5.35     23.49     25.81         0.15
  757                         6.52      6.52      6.73      0.01         0.01
  758                         6.73      6.73      7.12      0.01         0.01
  7584                        0.01      0.01     13.78      0.01         0.01
  7586                        0.01     13.78      0.01     10.52         0.01
  759                         7.12      7.12      8.05      0.01         0.01
  7590                        0.01      0.01     77.57      0.01         0.01
  760                         8.05      8.05     10.72      0.01         0.01
  761                        10.72     10.72     12.13      0.01         0.01
  762                        12.13     12.13     16.56      0.01         0.01
  763                        16.56     16.56     27.16      0.01         0.01
  764                        27.56     27.56     28.34     23.28        26.26
  7644                        0.01      0.01     39.83      0.01         0.01
  765                        28.34     28.34     28.52     24.16        27.87
  767                        11.85     28.52     11.85     28.98        11.85
  771                         8.08      9.53      8.08      9.99         8.08
  7718                        0.01      0.01     94.77      0.01         0.01
  7781                        0.05      0.05     81.37     13.50         0.01
  7785                        0.01      0.01     96.72      0.01         0.01
  7787                        0.01      0.01     95.54      0.01         0.01
  7789                        0.29      1.41      6.15      2.36         0.26
  7798                        0.01      0.01     94.68      0.01         0.01
  7802                        0.01      0.01     98.00      0.01         0.01
  7816                        0.01      0.01     98.00      0.01         0.01
  7824                        0.01      0.01     98.00      6.48         0.01
  7838                        0.01      0.01      0.01     73.49         0.01
  7900                        0.01      0.01     48.63      0.01         0.01
  7912                        0.01      0.01     28.26      0.01         0.01
  7959                        0.01      0.01      0.01     55.85         0.01
  7961                        0.01      0.01      0.01     73.47         0.01
  7965                        0.01      0.01      0.01     75.15         0.01
  8000                        0.01      0.01     89.79      0.01         0.01
  8002                        0.01      0.01     27.14      0.01         0.01
  8017                        1.93      2.06      2.84      4.20         1.93
  8020                        0.01      0.01      2.06      0.01         0.01
  8025                        0.01     19.98      0.01     17.01         0.01
  8036                        3.33      3.33     20.61      0.01         0.01
  8041                        0.01      0.01      0.01      6.92         0.01
  8053                        0.01     10.41      0.01     97.12         0.01
  8055                        0.01      0.01     10.41      0.01         0.01
  8111                        0.01      8.08      0.01     97.93         0.01
  8113                        0.01      0.01      8.08      0.01         0.01
  8134                        0.01      0.01      3.33      0.01         0.01
  8135                        2.84      2.84     19.98      0.01         0.01
  8160                        0.01      0.01      0.01     61.39         0.01
  8163                        0.01      0.01      0.01     64.62         0.01
  8206                        0.01      0.01     96.98      0.01         0.01
  8209                        0.01      0.01     96.98      0.01         0.01
  822                         0.01      0.01      0.01      3.19         0.01
  8228                        0.01      0.01      0.01     72.65         0.01
  8274                        0.01      0.01      0.01     44.04         0.01
  8327                        0.01      0.01      0.23      0.01         0.01
  8376                        0.01      0.01      0.01     29.83         0.01
  8396                        0.01      0.01     93.94      0.01         0.01
  8398                        0.01      0.01     92.92      0.01         0.01
  8400                        0.01      0.01     92.92      0.01         0.01
  8403                       93.98     93.98     95.35      0.01         0.01
  8408                        0.01      0.01      0.01      7.94         0.01
  8410                        0.01      0.01      0.01      2.64         0.01
  8442                        0.01      0.01      0.01     19.79         0.01
  8453                        0.01      0.01      6.81      0.01         0.01
  8455                        0.01      6.81      0.01     97.84         0.01
  8456                        0.01      0.01      0.01     97.59         0.01
  8460                        0.01      0.01      0.01     75.66         0.01
  8462                        0.01      0.01      0.01     73.05         0.01
  8465                        0.01      0.01      0.01     96.23         0.01
  8474                        0.01      0.01      0.01     21.91         0.01
  8484                        0.01      0.01      0.01     31.44         0.01
  8489                        0.01      0.01      0.01     69.30         0.01
  8493                        0.01      0.01      0.01     37.50         0.01
  8514                       10.67     10.67     18.57      7.75         8.28
  8517                        0.01      7.71      0.01      9.59         0.01
  8520                        0.01     24.89      0.01     97.78         0.01
  8521                        0.01      0.01      4.74      0.01         0.01
  8523                        4.74      4.74      6.63      0.01         0.01
  8525                        7.50      7.50     10.11      0.01         2.64
  8540                        0.01      0.01      0.01      0.85         0.01
  8559                        0.01      1.65      0.01     13.51         0.01
  8563                        0.01      6.41      0.01      6.75         0.01
  8567                        0.01      0.01     97.44      0.01         0.01
  8577                        0.01      0.01     97.44      0.01         0.01
  8610                        0.01      0.01      0.01     63.93         0.01
  8737                        0.01      7.68      0.01      7.76         0.01
  8739                        0.01      0.01      7.68      0.01         0.01
  8756                        0.01      3.67      0.01      6.74         0.01
  8757                        0.01      0.01      3.13      0.01         0.01
  903                         0.76      0.76      1.47      0.01         0.68
  904                         0.01      1.47      0.01      0.01         0.01
  905                         0.01      0.01      3.49      0.01         0.01
  906                         2.33      3.47      2.33     11.59         2.33
  95621                       2.33      2.33      4.27      0.01         1.69
  95625                       0.01      0.01     25.93      0.01         0.01
  DU-IPS-FM1                  0.01      0.01     93.40      0.01         0.01
  DU-IPS-FM2                  0.01      0.01     93.40      0.01         0.01
  LTPS_FM01                  21.81     21.84     94.66      0.01         0.01
  LTPS_FM02                  21.61     21.63     94.66      0.01         0.01
  LTPS_FM03                   0.01     42.02      0.01     95.00         0.01
  LTPS_FM04                   0.01     41.23      0.01     95.00         0.01
  SPRUCE_3_THROUGH            0.01      9.37      0.01     74.71         0.01
  SPRUCE_4_5                  4.86      4.86      5.19      0.01         4.15
  SPRUCE_5_3                  5.35      5.92      5.35      4.39         5.35
  SPRUCE_6_3                  5.29      5.29      8.39      0.01         0.01
  
  
  ***************
  Pumping Summary
  ***************
  
  ---------------------------------------------------------------------------------------------------------
                                                  Min       Avg       Max     Total     Power    % Time Off
                        Percent   Number of      Flow      Flow      Flow    Volume     Usage    Pump Curve
  Pump                 Utilized   Start-Ups       GPM       GPM       GPM  10^6 gal     Kw-hr    Low   High
  ---------------------------------------------------------------------------------------------------------
  BEAVERTON_1             23.89        2164      0.00    664.01   1257.21     0.906    121.61    0.0    0.0
  BEAVERTON_2              0.01           1      0.00    648.96   1257.21     0.000      0.01    0.0    0.0
  BORLAND_1               15.71           7      0.00    220.50   1100.00     0.200     66.29    0.0    0.0
  BORLAND_2                1.44           1      0.00    143.67   1100.00     0.012      4.00    0.0    0.3
  CIPOLE_1                 3.61          36      0.00    390.08    450.00     0.083      8.57    0.0    1.3
  CIPOLE_2                 0.04           1      0.00    438.20    450.00     0.001      0.09    0.0   50.4
  DU-IPS-P1               58.67        7635      0.00  15987.14  21372.41    52.931  14870.21    0.0    0.8
  DU-IPS-P2                3.47         552      0.00  17640.87  23500.56     3.593   1065.37    0.0    1.9
  DU-IPS-P3                1.59         297      0.00  29608.12  31927.66     2.760    877.04    0.0    0.0
  DU-IPS-P4               58.67        7635      0.00  15987.14  21372.41    52.931  14870.21    0.0    0.8
  DU-IPS-P5                3.47         552      0.00  17640.87  23500.56     3.593   1065.37    0.0    1.9
  DU-IPS-P6                1.59         297      0.00  29608.12  31927.66     2.760    877.04    0.0    0.0
  FOX_HILL_1              45.98          33      0.00     80.00     80.00     0.216     60.99    0.0  100.0
  FOX_HILL_2               0.36           1      0.00     80.00     80.00     0.002      0.48    0.0  100.0
  LTPS_1                  34.39         380      0.00   7629.82   7702.72    15.426   1295.83    0.0   96.1
  LTPS_2                   0.00           0      0.00      0.00      0.00     0.000      0.00    0.0    0.0
  LTPS_3                   0.00           0      0.00      0.00      0.00     0.000      0.00    0.0    0.0
  LTPS_4                   0.00           0      0.00      0.00      0.00     0.000      0.00    0.0    0.0
  LTPS_5                   0.00           0      0.00      0.00      0.00     0.000      0.00    0.0    0.0
  MEYERS_FARM_1            9.33         197      0.00    388.65    636.00     0.213    116.81    0.0    1.0
  MEYERS_FARM_2            0.01           1      0.00    636.00    636.00     0.001      0.01    0.0  100.0
  NYBERG_1                 2.35         134      0.00    692.14    842.70     0.097      5.70    0.0   61.0
  NYBERG_2                 0.01           1      0.00    842.70    842.70     0.000      0.01    0.0  100.0
  ORCHARD_HILL_1           6.61           3      0.00    477.43    750.00     0.178     27.02    0.0    0.0
  ORCHARD_HILL_2           1.72           1      0.00    327.92    750.00     0.033      6.28    0.0    0.1
  PLEASANT_VIEW_1         24.82         201      0.00    325.02    480.00     0.472    200.96    0.0    1.0
  PLEASANT_VIEW_2          0.02           1      0.00    480.00    480.00     0.001      0.01    0.0  100.0
  SAUM_CREEK_1            16.22         367      0.00    332.10   1200.00     0.314     89.84    0.0    0.9
  SAUM_CREEK_2             0.00           1      0.00   1200.00   1200.00     0.000      0.01    0.0  100.0
  SCHOLLS_COUNTY_EST_1    13.78          79      0.00    163.79    600.00     0.132     15.79    0.0    0.0
  SCHOLLS_COUNTY_EST_2     0.11           1      0.00    147.82    600.00     0.001      0.08    0.0    3.1
  SEQUIOA_RIDGE_1         47.88          17      0.00    102.51    450.00     0.281     81.39    0.0    0.0
  SEQUIOA_RIDGE_2          1.44           1      0.00     57.56    450.00     0.004      1.27    0.0    0.8
  SHERWOOD_1              18.97         284      0.00   4276.28   7521.00     4.759   1624.04    0.0    0.2
  SHERWOOD_2               0.01           1      0.00   7521.00   7521.00     0.006      0.56    0.0  100.0
  S_BULL_MOUNTAIN_1       13.13         242      0.00   1661.10   2200.00     1.279    225.91    0.0    0.1
  S_BULL_MOUNTAIN_2        0.03           1      0.00   1572.74   2200.00     0.002      0.28    0.0   27.9
  TEKTRONIX_1             29.73         548      0.00   2702.38   3454.00     4.731    585.93    0.0    0.5
  TEKTRONIX_2              0.02           1      0.00   3092.53   3454.00     0.003      0.28    0.0   20.9
  VICTORIA_WOODS_1        43.15          59      0.00     63.65    465.00     0.170     19.35    0.0    0.0
  VICTORIA_WOODS_2        12.92           2      0.00     52.15    465.00     0.041      4.75    0.0    0.0
  

  Analysis begun on:  Wed Jun 24 12:14:58 2026
  Analysis ended on:  Wed Jun 24 12:17:05 2026
  Total elapsed time: 00:02:07