
  EPA STORM WATER MANAGEMENT MODEL - VERSION 5.2 (Build 5.2.4)
  ------------------------------------------------------------

  WARNING 04: minimum elevation drop used for Conduit 0040699686.1
  WARNING 04: minimum elevation drop used for Conduit 0072599959.1
  WARNING 04: minimum elevation drop used for Conduit 0101498758.2
  WARNING 04: minimum elevation drop used for Conduit 0134398671.1
  WARNING 04: minimum elevation drop used for Conduit 0246499284.1
  WARNING 04: minimum elevation drop used for Conduit 0262695711.1
  WARNING 04: minimum elevation drop used for Conduit 0328597705.1
  WARNING 04: minimum elevation drop used for Conduit 0351697951.2
  WARNING 04: minimum elevation drop used for Conduit 0525695406.1
  WARNING 04: minimum elevation drop used for Conduit 0569595058.1
  WARNING 04: minimum elevation drop used for Conduit 0569595058.2
  WARNING 04: minimum elevation drop used for Conduit 0611495635.1
  WARNING 04: minimum elevation drop used for Conduit 0651088287.1
  WARNING 04: minimum elevation drop used for Conduit 0694295594.1
  WARNING 04: minimum elevation drop used for Conduit 0699095681.1
  WARNING 04: minimum elevation drop used for Conduit 0724889138.1
  WARNING 04: minimum elevation drop used for Conduit 0793695679.1
  WARNING 04: minimum elevation drop used for Conduit 1105196250.1
  WARNING 04: minimum elevation drop used for Conduit 1127296124.1
  WARNING 04: minimum elevation drop used for Conduit 1128396125.1
  WARNING 02: maximum depth increased for Node 0696095625
  
  ****************
  Analysis Options
  ****************
  Flow Units ............... LPS
  Process Models:
    Rainfall/Runoff ........ YES
    RDII ................... NO
    Snowmelt ............... NO
    Groundwater ............ NO
    Flow Routing ........... YES
    Ponding Allowed ........ YES
    Water Quality .......... NO
  Infiltration Method ...... HORTON
  Flow Routing Method ...... DYNWAVE
  Surcharge Method ......... EXTRAN
  Starting Date ............ 01/01/2025 00:00:00
  Ending Date .............. 01/07/2025 00:00:00
  Antecedent Dry Days ...... 5.0
  Report Time Step ......... 00:01:00
  Wet Time Step ............ 00:00:30
  Dry Time Step ............ 00:00:30
  Routing Time Step ........ 5.00 sec
  Variable Time Step ....... YES
  Maximum Trials ........... 8
  Number of Threads ........ 1
  Head Tolerance ........... 0.000100 m
  
  
  **************************        Volume         Depth
  Runoff Quantity Continuity     hectare-m            mm
  **************************     ---------       -------
  Total Precipitation ......       282.108        30.000
  Evaporation Loss .........        39.725         4.224
  Infiltration Loss ........        69.303         7.370
  Surface Runoff ...........       173.094        18.407
  Final Storage ............         0.000         0.000
  Continuity Error (%) .....        -0.005
  
  
  **************************        Volume        Volume
  Flow Routing Continuity        hectare-m      10^6 ltr
  **************************     ---------     ---------
  Dry Weather Inflow .......         0.000         0.000
  Wet Weather Inflow .......       173.093      1730.943
  Groundwater Inflow .......         0.000         0.000
  RDII Inflow ..............         0.000         0.000
  External Inflow ..........        17.879       178.789
  External Outflow .........       168.841      1688.425
  Flooding Loss ............        55.541       555.419
  Evaporation Loss .........         1.119        11.190
  Exfiltration Loss ........         0.000         0.000
  Initial Stored Volume ....        47.614       476.145
  Final Stored Volume ......        78.317       783.174
  Continuity Error (%) .....       -27.341
  
  
  *************************
  Highest Continuity Errors
  *************************
  Node 1128396125 (-1331.20%)
  Node 1081896183 (-20.08%)
  Node 1127496117 (-16.97%)
  Node 0100701077 (11.33%)
  Node 0217097544 (-7.13%)
  
  
  ***************************
  Time-Step Critical Elements
  ***************************
  Link 0040999692.1 (33.93%)
  Link 1382495759.1 (13.81%)
  Link 0412888452.1 (3.96%)
  Link 0525695406.1 (3.67%)
  Link 1128396125.1 (3.56%)
  
  
  ********************************
  Highest Flow Instability Indexes
  ********************************
  Link 1414495040.1 (75)
  Link 0353597589.1 (64)
  Link DR34.WEIR-2 (64)
  Link DR20.PS-1103 (58)
  Link 1113596078.1 (58)
  
  
  *********************************
  Most Frequent Nonconverging Nodes
  *********************************
  Node 0039199701 (100.00%)
  Node 0079600813 (100.00%)
  Node 0149888424 (100.00%)
  Node 0155500952 (100.00%)
  Node 0247199359 (100.00%)
  
  
  *************************
  Routing Time Step Summary
  *************************
  Minimum Time Step           :     0.50 sec
  Average Time Step           :     2.67 sec
  Maximum Time Step           :     5.00 sec
  % of Time in Steady State   :     0.00
  Average Iterations per Step :     8.00
  % of Steps Not Converging   :   100.00
  Time Step Frequencies       :
      5.000 -  3.155 sec      :    32.93 %
      3.155 -  1.991 sec      :    39.53 %
      1.991 -  1.256 sec      :    13.99 %
      1.256 -  0.792 sec      :     7.90 %
      0.792 -  0.500 sec      :     5.64 %
  
  
  ***************************
  Subcatchment Runoff Summary
  ***************************
  
  ------------------------------------------------------------------------------------------------------------------------------
                            Total      Total      Total      Total     Imperv       Perv      Total       Total     Peak  Runoff
                           Precip      Runon       Evap      Infil     Runoff     Runoff     Runoff      Runoff   Runoff   Coeff
  Subcatchment                 mm         mm         mm         mm         mm         mm         mm    10^6 ltr      LPS
  ------------------------------------------------------------------------------------------------------------------------------
  SUB-0017999181            30.00       0.00       3.23       6.33       7.35      13.13      20.44        0.22    72.52   0.681
  SUB-0030799134            30.00       0.00       3.78       6.26       9.92      12.84      19.96        0.51   135.46   0.665
  SUB-0030999178            30.00       0.00       3.57       5.70      10.14      14.19      20.74        0.86   251.94   0.691
  SUB-0041699091            30.00       0.00       3.27       5.18      10.45      14.31      21.56        0.19    68.38   0.719
  SUB-0046599168            30.00       0.00       3.93       6.50       9.56      13.34      19.57        0.77   185.27   0.652
  SUB-0049199381            30.00       0.00       3.70       5.50      11.53      13.18      20.81        1.12   312.54   0.694
  SUB-0052398993            30.00       0.00       3.57       6.50       7.53      14.75      19.93        0.36   100.89   0.664
  SUB-0052999582            30.00       0.00       3.14       5.36      11.19      10.31      21.49        0.34   128.56   0.716
  SUB-0053099623            30.00       0.00       2.72       4.64      11.27      11.37      22.64        0.06    31.17   0.755
  SUB-0053699540            30.00       0.00       3.52       7.70       3.05      15.73      18.78        0.34    88.26   0.626
  SUB-0053999668            30.00       0.00       3.95       8.16       5.40      12.50      17.89        0.33    78.75   0.596
  SUB-0054699144            30.00       0.00       2.81       4.18      13.99       9.02      23.01        0.06    28.18   0.767
  SUB-0055900351            30.00       0.00       3.38       5.75      11.13       9.74      20.87        0.28    94.98   0.696
  SUB-0057899711            30.00       0.00       2.83       4.84      11.25      11.08      22.33        0.11    47.72   0.744
  SUB-0058399057            30.00       0.00       3.36       5.54       9.76      14.27      21.10        0.23    76.67   0.703
  SUB-0059800356            30.00       0.00       3.86       6.59       9.24      12.95      19.55        0.80   203.59   0.652
  SUB-0061599219            30.00       0.00       3.37       5.23      11.21      13.15      21.41        0.55   185.36   0.714
  SUB-0061798844            30.00       0.00       3.30       5.16      11.16      13.14      21.54        0.24    82.98   0.718
  SUB-0062299787            30.00       0.00       2.85       4.86      11.25      11.05      22.30        0.10    45.13   0.743
  SUB-0063299385            30.00       0.00       3.37       5.34      10.95      13.01      21.29        0.22    72.99   0.710
  SUB-0066898899            30.00       0.00       3.37       5.11      11.38      13.55      21.53        0.32   106.83   0.718
  SUB-0068600192            30.00       0.00       3.45       4.29      13.89      13.67      22.26        0.79   265.20   0.742
  SUB-0069899953            30.00       0.00       3.49       7.06       6.33      13.12      19.45        0.50   144.80   0.648
  SUB-0069900213            30.00       0.00       3.24       5.53      11.16      10.06      21.23        0.14    49.77   0.708
  SUB-0070499925            30.00       0.00       2.72       4.64      11.27      11.38      22.65        0.08    37.36   0.755
  SUB-0070599058            30.00       0.00       3.64       5.97       9.92      13.47      20.39        0.69   195.31   0.680
  SUB-0071098953            30.00       0.00       3.77       5.64      11.63      12.54      20.59        0.86   229.91   0.686
  SUB-0073000152            30.00       0.00       3.58       5.04      11.80      14.72      21.38        0.50   151.34   0.713
  SUB-0074300016            30.00       0.00       2.65       4.51      11.29      11.56      22.84        0.17    89.90   0.761
  SUB-0074998722            30.00       0.00       3.54       5.68      10.43      13.36      20.78        0.83   248.60   0.693
  SUB-0076400150            30.00       0.00       2.83       4.84      11.25      11.08      22.33        0.09    38.74   0.744
  SUB-0079800680            30.00       0.00       3.68       6.63       8.00      13.95      19.70        0.85   224.82   0.657
  SUB-0082200357            30.00       0.00       3.76       6.57       9.04      12.70      19.68        1.69   453.38   0.656
  SUB-0083100792            30.00       0.00       4.26       7.42      10.17       8.15      18.32        0.71   174.28   0.611
  SUB-0084099993            30.00       0.00       4.13       8.59       4.96      12.36      17.28        3.65   807.18   0.576
  SUB-0085299700            30.00       0.00       2.57       3.89      13.76       9.78      23.54        0.12    64.27   0.785
  SUB-0085499252            30.00       0.00       3.34       5.41      10.31      13.80      21.25        0.30   102.64   0.708
  SUB-0085800776            30.00       0.00       3.74       6.13      10.69      11.38      20.13        1.13   318.22   0.671
  SUB-0088899763            30.00       0.00       2.72       4.26      13.13       9.89      23.02        0.08    36.41   0.767
  SUB-0089498899            30.00       0.00       3.69       6.02       9.98      13.48      20.30        0.68   186.75   0.677
  SUB-0090498633            30.00       0.00       3.58       7.07       6.26      14.04      19.35        0.50   133.30   0.645
  SUB-0093699111            30.00       0.00       3.47       5.14      12.01      12.59      21.39        0.38   120.22   0.713
  SUB-0097700048            30.00       0.00       3.60       6.11      11.13       9.16      20.29        0.52   160.34   0.676
  SUB-0097700082            30.00       0.00       3.56       6.62       7.97      13.03      19.83        0.47   135.94   0.661
  SUB-0098098507            30.00       0.00       3.87       6.07      10.24      13.99      20.07        0.61   150.48   0.669
  SUB-0104999585            30.00       0.00       2.55       3.80      14.08       9.57      23.65        0.15    77.94   0.788
  SUB-0106798937            30.00       0.00       3.33       5.40      10.76      12.74      21.27        0.24    82.05   0.709
  SUB-0107001121            30.00       0.00       3.47       5.78      10.00      13.12      20.75        1.23   380.42   0.692
  SUB-0110798496            30.00       0.00       3.18       4.70      13.86       8.26      22.12        0.10    38.05   0.737
  SUB-0110998866            30.00       0.00       3.70       5.52      11.13      14.04      20.78        0.89   243.91   0.693
  SUB-0112698372            30.00       0.00       3.28       4.48      12.72      13.90      22.24        0.13    49.12   0.741
  SUB-0115099521            30.00       0.00       3.97       5.66      11.59      14.04      20.37        2.36   552.78   0.679
  SUB-0115500084            30.00       0.00       3.21       5.44       9.36      14.42      21.36        0.45   165.21   0.712
  SUB-0116098537            30.00       0.00       3.92       6.44       9.74      13.21      19.65        0.71   173.32   0.655
  SUB-0117899056            30.00       0.00       3.55       5.89       9.85      13.45      20.56        0.71   209.56   0.685
  SUB-0121099078            30.00       0.00       3.34       5.66      11.28       9.72      21.00        0.56   191.62   0.700
  SUB-0121899094            30.00       0.00       2.75       4.68      11.35      11.22      22.58        0.11    53.35   0.753
  SUB-0122599088            30.00       0.00       4.11       7.62       7.44      12.83      18.27        1.48   329.01   0.609
  SUB-0124099015            30.00       0.00       3.45       5.53      10.45      13.60      21.02        0.36   113.58   0.701
  SUB-0124500085            30.00       0.00       3.61       6.06       9.55      13.53      20.34        1.58   450.21   0.678
  SUB-0125399152            30.00       0.00       2.77       4.41      12.78      10.05      22.83        0.10    43.64   0.761
  SUB-0125498263            30.00       0.00       3.30       5.62      11.15       9.94      21.09        0.14    49.43   0.703
  SUB-0128398508            30.00       0.00       3.94       6.16      10.38      13.18      19.90        1.11   275.73   0.663
  SUB-0129899227            30.00       0.00       2.80       4.81      11.08      11.31      22.39        0.04    17.15   0.746
  SUB-0129998408            30.00       0.00       4.92      10.25       3.98      11.70      14.83        0.97   151.31   0.494
  SUB-0133298931            30.00       0.00       3.09       5.27      11.20      10.45      21.65        0.09    33.10   0.722
  SUB-0133600087            30.00       0.00       2.77       4.72      11.26      11.25      22.51        0.13    60.83   0.750
  SUB-0133799293            30.00       0.00       2.58       3.84      14.07       9.52      23.58        0.05    27.83   0.786
  SUB-0136499393            30.00       0.00       4.60       9.80       3.61      12.22      15.60        3.70   634.74   0.520
  SUB-0136800167            30.00       0.00       2.89       4.94      11.24      10.93      22.17        0.19    80.06   0.739
  SUB-0138300356            30.00       0.00       4.14       7.53       8.04      12.28      18.33        2.39   541.48   0.611
  SUB-0140599826            30.00       0.00       3.20       5.46      11.17      10.16      21.34        0.37   134.28   0.711
  SUB-0141298860            30.00       0.00       3.88       5.91      11.41      12.10      20.21        0.82   210.91   0.674
  SUB-0142100067            30.00       0.00       2.72       4.65      11.27      11.36      22.63        0.11    54.50   0.754
  SUB-0144299382            30.00       0.00       2.96       4.38      13.94       8.72      22.66        0.17    71.51   0.755
  SUB-0144400828            30.00       0.00       4.18       7.30       8.84      12.14      18.53        2.30   515.10   0.618
  SUB-0145998815            30.00       0.00       3.66       5.74      11.45      11.42      20.61        0.66   192.16   0.687
  SUB-0145999326            30.00       0.00       4.92      10.68       2.76      11.66      14.40        1.29   193.39   0.480
  SUB-0149598000            30.00       0.00       3.89       4.34      14.83      13.60      21.77        0.73   182.46   0.726
  SUB-0152200963            30.00       0.00       2.82       4.95      10.57      11.66      22.23        0.12    52.23   0.741
  SUB-0152999615            30.00       0.00       3.14       5.36      11.19      10.32      21.51        0.33   124.84   0.717
  SUB-0157099461            30.00       0.00       3.06       5.23      11.20      10.52      21.71        0.24    95.19   0.724
  SUB-0159698644            30.00       0.00       3.62       5.78      11.10      11.76      20.60        0.34   101.26   0.687
  SUB-0159799437            30.00       0.00       3.32       5.65      11.18       9.91      21.03        0.35   120.66   0.701
  SUB-0162798098            30.00       0.00       4.14       8.95       2.89      14.41      16.91        0.38    63.32   0.564
  SUB-0162898614            30.00       0.00       3.56       6.05      11.09       9.30      20.39        0.19    58.66   0.680
  SUB-0165998620            30.00       0.00       4.80      10.72       1.21      13.28      14.49        0.35    37.34   0.483
  SUB-0170398605            30.00       0.00       3.46       5.89      11.11       9.54      20.66        0.14    46.94   0.689
  SUB-0172798667            30.00       0.00       2.76       4.72      11.26      11.26      22.52        0.03    14.95   0.751
  SUB-0179398855            30.00       0.00       3.91       7.43       7.52      12.08      18.66        0.97   248.51   0.622
  SUB-0180399089            30.00       0.00       3.18       5.43      11.18      10.22      21.40        0.37   135.25   0.713
  SUB-0181498494            30.00       0.00       4.24       9.63       0.52      15.61      16.13        0.41    65.37   0.538
  SUB-0184798238            30.00       0.00       4.66       8.75       6.46      12.86      16.60        1.62   267.03   0.553
  SUB-0187197724            30.00       0.00       3.20       3.97      14.82      11.57      22.83        0.40   149.50   0.761
  SUB-0187698781            30.00       0.00       3.22       3.54      15.43      13.55      23.24        0.31   127.12   0.775
  SUB-0188298432            30.00       0.00       3.95       6.48       9.51      13.82      19.57        1.16   270.91   0.652
  SUB-0188398678            30.00       0.00       3.81       7.14       7.43      13.15      19.05        0.54   137.24   0.635
  SUB-0188998524            30.00       0.00       3.30       5.61      11.22       9.88      21.10        0.25    88.62   0.703
  SUB-0190599058            30.00       0.00       4.39       8.01       8.90       9.05      17.60        1.18   279.13   0.587
  SUB-0190697688            30.00       0.00       4.41       8.36       6.22      12.75      17.23        1.37   271.51   0.574
  SUB-0193598483            30.00       0.00       3.05       5.20      11.21      10.55      21.76        0.26   103.03   0.725
  SUB-0197998444            30.00       0.00       2.84       4.85      11.25      11.06      22.31        0.24   104.94   0.744
  SUB-0203797675            30.00       0.00       3.84       5.88      10.95      13.23      20.28        0.81   206.96   0.676
  SUB-0207997635            30.00       0.00       2.82       4.18      13.99       9.01      23.00        0.11    48.88   0.767
  SUB-0208098613            30.00       0.00       3.00       4.44      13.93       8.64      22.57        0.18    71.06   0.752
  SUB-0209598306            30.00       0.00       3.18       5.43      11.18      10.21      21.39        0.31   112.79   0.713
  SUB-0209598690            30.00       0.00       3.17       4.67      13.87       8.29      22.16        0.21    77.15   0.739
  SUB-0209698762            30.00       0.00       3.71       7.71       5.17      13.42      18.58        0.14    34.43   0.619
  SUB-0210598333            30.00       0.00       3.24       5.46      11.39       9.91      21.30        0.41   149.55   0.710
  SUB-0212095920            30.00       0.00       3.98       4.67      14.52      12.45      21.35        2.72   645.81   0.712
  SUB-0212397874            30.00       0.00       2.72       4.04      14.02       9.22      23.24        0.14    64.15   0.775
  SUB-0214096480            30.00       0.00       3.62       3.87      15.25      14.17      22.52        3.01   934.37   0.751
  SUB-0214197986            30.00       0.00       4.15       5.90      11.83      13.08      19.96        0.88   191.63   0.665
  SUB-0215998078            30.00       0.00       3.77       7.36       7.50      11.37      18.87        0.65   180.68   0.629
  SUB-0217097544            30.00       0.00       3.00       4.44      13.93       8.63      22.56        0.16    63.57   0.752
  SUB-0220595848            30.00       0.00       3.79       3.73      15.84      14.56      22.48        1.51   423.24   0.749
  SUB-0222899024            30.00       0.00       3.10       5.29      11.20      10.42      21.62        0.47   178.23   0.721
  SUB-0223098488            30.00       0.00       2.77       4.12      14.01       9.11      23.11        0.11    49.20   0.770
  SUB-0226696599            30.00       0.00       3.78       3.72      15.84      14.58      22.50        2.66   751.51   0.750
  SUB-0226898371            30.00       0.00       4.15       9.13       2.42      14.31      16.73        0.52    84.36   0.558
  SUB-0228596460            30.00       0.00       3.61       4.30      14.16      14.06      22.09        0.93   283.08   0.736
  SUB-0229397158            30.00       0.00       2.13       0.00      27.87       0.00      27.87        0.17    97.02   0.929
  SUB-0230898598            30.00       0.00       4.09       8.72       3.11      14.84      17.20        0.52    90.52   0.573
  SUB-0231398075            30.00       0.00       4.19       5.81      12.73       9.95      19.99        1.92   452.31   0.666
  SUB-0231798102            30.00       0.00       3.19       3.25      16.50       7.06      23.56        0.60   280.77   0.785
  SUB-0231798652            30.00       0.00       5.85      12.74       2.22       9.27      11.41        4.45   565.17   0.380
  SUB-0232798361            30.00       0.00       3.63       7.10       7.39      11.87      19.27        0.40   116.30   0.642
  SUB-0233897177            30.00       0.00       2.90       4.96      11.24      10.91      22.14        0.56   237.86   0.738
  SUB-0234398171            30.00       0.00       3.22       4.78      11.75      13.65      22.01        0.40   149.50   0.734
  SUB-0234495781            30.00       0.00       4.17       7.61       8.07      11.93      18.22        0.81   186.19   0.607
  SUB-0234797999            30.00       0.00       5.24      11.59       1.32      12.10      13.17        1.04    93.36   0.439
  SUB-0236796666            30.00       0.00       3.75       3.69      15.85      14.63      22.56        1.09   314.25   0.752
  SUB-0237397134            30.00       0.00       2.66       4.55      11.28      11.51      22.79        0.25   125.84   0.760
  SUB-0238198188            30.00       0.00       3.00       5.13      11.21      10.65      21.87        0.17    68.32   0.729
  SUB-0239398266            30.00       0.00       3.48       5.92      11.12       9.47      20.60        0.48   156.20   0.687
  SUB-0241395762            30.00       0.00       4.43      10.12       0.00      15.44      15.44        3.69   540.00   0.515
  SUB-0241997265            30.00       0.00       3.32       5.03      11.25      13.97      21.65        0.61   213.61   0.722
  SUB-0244596774            30.00       0.00       4.19       4.18      15.65      13.81      21.63        1.70   355.18   0.721
  SUB-0244698151            30.00       0.00       2.82       4.81      11.25      11.12      22.37        0.18    78.16   0.746
  SUB-0245199187            30.00       0.00       3.02       5.15      11.21      10.62      21.83        0.37   147.18   0.728
  SUB-0248197071            30.00       0.00       2.58       4.40      11.30      11.72      23.02        0.13    71.77   0.767
  SUB-0248297346            30.00       0.00       3.84       8.54       2.01      15.61      17.62        0.36    73.17   0.587
  SUB-0251899332            30.00       0.00       3.19       5.59      10.59      10.64      21.22        0.40   145.32   0.707
  SUB-0252598031            30.00       0.00       3.11       5.97       5.66      17.40      20.92        0.20    98.55   0.697
  SUB-0254397425            30.00       0.00       2.95       4.99      11.45      10.61      22.06        0.23    93.77   0.735
  SUB-0256195756            30.00       0.00       3.86       4.52      14.38      13.33      21.62        1.71   437.25   0.721
  SUB-0256997898            30.00       0.00       2.75       4.69      11.27      11.30      22.57        0.05    23.79   0.752
  SUB-0256997960            30.00       0.00       2.63       4.48      11.29      11.61      22.90        0.05    26.04   0.763
  SUB-0259697956            30.00       0.00       2.83       4.83      11.25      11.09      22.34        0.72   319.02   0.745
  SUB-0266297842            30.00       0.00       3.61       6.09      11.20       9.10      20.30        0.52   160.34   0.677
  SUB-0266495757            30.00       0.00       3.64       6.23       9.70      12.40      20.13        1.22   348.79   0.671
  SUB-0268198430            30.00       0.00       3.22       5.49      11.17      10.13      21.30        0.96   348.40   0.710
  SUB-0268298982            30.00       0.00       3.83       6.70      10.16       9.60      19.48        1.06   302.19   0.649
  SUB-0268697941            30.00       0.00       3.03       5.16      11.23      10.58      21.81        1.20   477.04   0.727
  SUB-0270997893            30.00       0.00       2.67       4.54      11.40      11.39      22.79        0.07    37.62   0.760
  SUB-0271296809            30.00       0.00       2.97       4.13      13.13      12.97      22.90        0.44   201.21   0.763
  SUB-0271397909            30.00       0.00       2.74       4.67      11.27      11.32      22.59        0.05    25.15   0.753
  SUB-0273696839            30.00       0.00       3.53       3.61      15.59      14.68      22.87        1.72   592.52   0.762
  SUB-0275298418            30.00       0.00       3.26       5.57      11.16      10.01      21.17        1.67   595.51   0.706
  SUB-0276296884            30.00       0.00       4.07       6.54      10.14      12.79      19.39        8.30  1898.63   0.646
  SUB-0276896908            30.00       0.00       2.41       4.10      11.33      12.16      23.50        0.02    13.89   0.783
  SUB-0277296923            30.00       0.00       2.99       5.10      11.22      10.69      21.91        0.70   283.38   0.730
  SUB-0281297888            30.00       0.00       4.17       8.56       4.82      13.28      17.27        1.15   228.52   0.576
  SUB-0286195745            30.00       0.00       3.37       6.43       7.34      13.81      20.21        0.57   178.15   0.674
  SUB-0288197870            30.00       0.00       2.83       4.30      13.62       9.24      22.87        0.03    13.79   0.762
  SUB-0290197158            30.00       0.00       4.22       9.59       0.62      15.57      16.19        1.62   259.32   0.540
  SUB-0294297167            30.00       0.00       4.34       6.05      12.21      11.75      19.61        3.76   775.71   0.654
  SUB-0297198412            30.00       0.00       2.78       4.13      14.00       9.10      23.10        0.09    41.75   0.770
  SUB-0297397257            30.00       0.00       2.79       4.76      11.26      11.20      22.46        0.06    26.85   0.749
  SUB-0298398485            30.00       0.00       3.25       5.36      10.25      13.41      21.39        0.28    99.22   0.713
  SUB-0299398545            30.00       0.00       2.84       4.21      13.98       8.97      22.95        0.19    84.05   0.765
  SUB-0300598620            30.00       0.00       3.94       6.02      11.45      10.24      20.05        4.63  1280.49   0.668
  SUB-0305598253            30.00       0.00       3.41       4.00      14.62      10.61      22.60        1.02   391.55   0.753
  SUB-0306998338            30.00       0.00       4.91       7.88      10.58       7.36      17.21        3.08   597.65   0.574
  SUB-0307198357            30.00       0.00       4.30       8.55       5.32      12.94      17.15        2.12   423.39   0.572
  SUB-0308697797            30.00       0.00       2.94       4.36      13.95       8.76      22.71        0.12    50.38   0.757
  SUB-0308797375            30.00       0.00       3.63       5.92      10.39      12.65      20.45        0.57   163.35   0.682
  SUB-0310597632            30.00       0.00       4.54       9.97       2.34      13.15      15.49        0.50    70.83   0.516
  SUB-0312297670            30.00       0.00       5.16      10.50       4.66      10.85      14.34        3.19   500.14   0.478
  SUB-0314295977            30.00       0.00       4.33       7.05      10.36      10.84      18.62        9.42  2047.45   0.621
  SUB-0314397614            30.00       0.00       3.09       5.23      11.39      10.30      21.69        0.21    82.32   0.723
  SUB-0315797333            30.00       0.00       3.73       6.05      10.06      12.35      20.22        0.45   131.41   0.674
  SUB-0316497756            30.00       0.00       3.71       6.77       8.32      12.61      19.52        0.48   131.74   0.651
  SUB-0318197681            30.00       0.00       2.71       4.93       9.67      12.69      22.36        0.06    28.82   0.745
  SUB-0321597728            30.00       0.00       3.46       7.90       0.95      17.69      18.65        0.03     8.32   0.622
  SUB-0322097748            30.00       0.00       3.42       7.86       0.64      18.09      18.72        0.03     9.25   0.624
  SUB-0322498133            30.00       0.00       3.49       4.56      13.89       8.08      21.95        0.53   196.35   0.732
  SUB-0324597779            30.00       0.00       2.76       4.68      11.41      11.16      22.57        0.06    26.09   0.752
  SUB-0325597798            30.00       0.00       4.16       9.40       0.96      15.48      16.44        0.11    17.55   0.548
  SUB-0328497780            30.00       0.00       3.59       4.33      14.22      12.03      22.09        1.25   403.69   0.736
  SUB-0329595616            30.00       0.00       4.02       7.76       6.51      13.19      18.23        1.70   381.20   0.608
  SUB-0332897224            30.00       0.00       3.67       5.95      10.67      12.13      20.38        0.57   162.59   0.679
  SUB-0335598153            30.00       0.00       3.77       6.58       8.55      13.83      19.66        0.41   104.95   0.655
  SUB-0336595575            30.00       0.00       4.54      10.04       1.93      13.50      15.43        1.15   151.88   0.514
  SUB-0338297900            30.00       0.00       3.58       6.08      11.08       9.26      20.34        1.28   402.15   0.678
  SUB-0340598195            30.00       0.00       4.37       7.05      10.45       9.41      18.59        3.70   877.11   0.620
  SUB-0341297171            30.00       0.00       3.49       5.10      10.76      16.03      21.41        0.69   230.70   0.714
  SUB-0344295665            30.00       0.00       4.45       6.83      11.00      11.40      18.72        3.25   643.60   0.624
  SUB-0347897129            30.00       0.00       4.77       8.26       9.26       9.52      16.97        1.84   358.06   0.566
  SUB-0348295726            30.00       0.00       3.89       8.40       3.53      14.19      17.71        0.89   180.94   0.590
  SUB-0349295494            30.00       0.00       4.44       9.87       1.76      13.93      15.69        0.77   101.93   0.523
  SUB-0349297842            30.00       0.00       3.50       5.75      11.81       8.94      20.75        0.37   119.81   0.692
  SUB-0349695749            30.00       0.00       4.35       6.73      11.09      10.88      18.92        5.51  1169.98   0.631
  SUB-0350598096            30.00       0.00       3.57       5.94      11.53       8.95      20.49        0.70   219.65   0.683
  SUB-0353497907            30.00       0.00       3.29       5.50      11.59       9.62      21.21        0.70   245.82   0.707
  SUB-0357197070            30.00       0.00       2.72       4.04      14.02       9.22      23.24        0.11    50.28   0.775
  SUB-0357695439            30.00       0.00       4.56      10.08       1.97      13.39      15.36        0.53    69.59   0.512
  SUB-0366095385            30.00       0.00       2.86       4.92      11.02      11.20      22.22        0.14    61.07   0.741
  SUB-0366597010            30.00       0.00       4.41       6.54      11.42      11.82      19.06        3.02   596.35   0.635
  SUB-0374298397            30.00       0.00       3.94       7.27       8.53      10.99      18.79        0.81   214.57   0.626
  SUB-0375495324            30.00       0.00       4.06       9.14       1.18      15.62      16.80        0.97   169.56   0.560
  SUB-0382598324            30.00       0.00       3.55       3.97      14.93      13.91      22.48        0.33   104.56   0.749
  SUB-0382895276            30.00       0.00       2.63       4.48      11.29      11.61      22.90        0.13    68.39   0.763
  SUB-0386496876            30.00       0.00       3.95       6.20      10.66      12.48      19.84        5.63  1395.80   0.661
  SUB-0387197692            30.00       0.00       3.69       6.18      11.19       9.24      20.13        0.57   169.12   0.671
  SUB-0389998277            30.00       0.00       3.92       6.44       9.83      13.01      19.63        1.11   272.59   0.654
  SUB-0391295222            30.00       0.00       2.85       4.87      11.25      11.04      22.29        0.16    70.20   0.743
  SUB-0402298199            30.00       0.00       5.25       9.51       7.82       9.56      15.24        6.92  1130.95   0.508
  SUB-0403095147            30.00       0.00       5.13      11.52       0.71      12.64      13.35        2.46   236.13   0.445
  SUB-0403096770            30.00       0.00       4.12       7.09       8.17      14.41      18.79        2.48   509.36   0.626
  SUB-0405595143            30.00       0.00       3.51       4.97      12.24      13.54      21.53        1.07   334.87   0.718
  SUB-0410395161            30.00       0.00       3.12       5.33      11.19      10.36      21.55        0.14    52.28   0.718
  SUB-0410696720            30.00       0.00       3.88       5.84      11.08      13.02      20.28        4.34  1114.59   0.676
  SUB-0411398140            30.00       0.00       3.93       6.05      12.60       7.42      20.02        0.45   120.06   0.667
  SUB-0412888452            30.00       0.00       3.21       5.59      10.00      12.11      21.21        0.57   203.75   0.707
  SUB-0413195143            30.00       0.00       4.94       8.19       9.69       9.60      16.87        4.14   741.03   0.562
  SUB-0414595073            30.00       0.00       5.66       9.61       8.97       8.25      14.73        6.33   893.12   0.491
  SUB-0415688079            30.00       0.00       3.19       5.45      11.17      10.19      21.36        0.93   341.11   0.712
  SUB-0416996680            30.00       0.00       4.38       6.63      11.83       9.47      19.00        1.12   239.05   0.633
  SUB-0419796662            30.00       0.00       4.14       7.06       9.46      11.16      18.80        4.78  1166.73   0.627
  SUB-0420197480            30.00       0.00       4.27       5.63      12.69      13.33      20.11        7.40  1478.46   0.670
  SUB-0423588423            30.00       0.00       3.57       6.06      11.09       9.29      20.37        2.10   662.26   0.679
  SUB-0425996758            30.00       0.00       4.00       6.69      11.08       8.26      19.31        0.64   171.84   0.644
  SUB-0428388317            30.00       0.00       2.68       4.58      11.28      11.46      22.74        0.13    66.25   0.758
  SUB-0431197410            30.00       0.00       3.66       6.22      11.07       9.06      20.12        0.40   122.96   0.671
  SUB-0433596710            30.00       0.00       3.51       4.99      12.36      12.83      21.51        0.75   234.89   0.717
  SUB-0436587866            30.00       0.00       3.53       6.59       7.45      14.07      19.88        0.47   133.77   0.663
  SUB-0440388008            30.00       0.00       4.00       6.56      10.36      11.46      19.44        2.75   683.69   0.648
  SUB-0443987846            30.00       0.00       3.42       5.39      10.49      14.17      21.20        1.83   596.32   0.707
  SUB-0444787498            30.00       0.00       4.08       6.61      10.39      11.77      19.32        4.51  1065.15   0.644
  SUB-0445896630            30.00       0.00       3.23       4.39      13.68      11.68      22.38        0.35   129.73   0.746
  SUB-0448988262            30.00       0.00       3.68       6.67       8.34      12.97      19.65        1.22   333.42   0.655
  SUB-0449895767            30.00       0.00       3.43       5.79      10.40      11.73      20.78        2.39   773.49   0.693
  SUB-0449895786            30.00       0.00       3.26       4.33      13.05      13.52      22.42        1.94   760.49   0.747
  SUB-0450387708            30.00       0.00       3.44       5.27      10.79      14.38      21.29        0.98   318.48   0.710
  SUB-0451996591            30.00       0.00       4.39       6.75      10.62      12.54      18.86        6.77  1327.09   0.629
  SUB-0453288069            30.00       0.00       3.15       4.65      13.87       8.33      22.20        0.39   142.55   0.740
  SUB-0454095759            30.00       0.00       2.89       4.93      11.24      10.95      22.19        0.32   135.97   0.740
  SUB-0456797401            30.00       0.00       3.18       5.80       8.00      14.68      21.02        0.34   123.93   0.701
  SUB-0459897831            30.00       0.00       4.26       8.15       7.02      11.31      17.59        1.81   425.14   0.586
  SUB-0461096533            30.00       0.00       3.42       5.39      11.24      12.44      21.19        1.32   428.36   0.706
  SUB-0463697509            30.00       0.00       3.46       6.76       5.48      16.28      19.78        0.32    97.31   0.659
  SUB-0468788209            30.00       0.00       4.17       7.31       7.85      14.19      18.52        1.90   380.75   0.617
  SUB-0470597617            30.00       0.00       3.49       6.08       7.85      15.95      20.43        0.33   102.49   0.681
  SUB-0473887116            30.00       0.00       3.58       6.55       8.20      13.21      19.87        1.01   286.61   0.662
  SUB-0474495608            30.00       0.00       3.24       5.63       9.43      13.42      21.13        2.47   865.54   0.704
  SUB-0476597725            30.00       0.00       3.63       6.88       8.36      11.14      19.50        0.36   107.07   0.650
  SUB-0477198456            30.00       0.00       4.48       7.37      10.07      10.54      18.16        6.24  1301.52   0.605
  SUB-0478388123            30.00       0.00       4.06       6.63      10.29      11.73      19.31        2.14   512.39   0.644
  SUB-0478697744            30.00       0.00       5.64      12.68       0.19      11.49      11.68        1.03    82.04   0.389
  SUB-0482287093            30.00       0.00       3.61       6.16       9.77      12.37      20.24        0.94   275.39   0.675
  SUB-0482696281            30.00       0.00       3.43       4.60      13.35      11.41      21.97        1.37   473.33   0.732
  SUB-0483488315            30.00       0.00       4.29       9.69       0.91      15.11      16.02        0.90   134.25   0.534
  SUB-0483989585            30.00       0.00       4.28       7.12       9.64      12.01      18.60        4.96  1060.51   0.620
  SUB-0484297676            30.00       0.00       4.54       6.69      11.74      10.65      18.77        6.00  1144.80   0.626
  SUB-0484698408            30.00       0.00       4.54       8.44       7.35      11.61      17.01        1.59   313.68   0.567
  SUB-0485196265            30.00       0.00       3.59       6.19      10.78       9.44      20.22        0.34   106.24   0.674
  SUB-0485988408            30.00       0.00       3.62       5.70      11.08      12.33      20.68        0.59   172.25   0.689
  SUB-0486196372            30.00       0.00       3.34       5.52      11.77       9.41      21.15        0.45   153.60   0.705
  SUB-0487489323            30.00       0.00       3.83       6.18      10.36      12.64      19.99        1.76   456.83   0.666
  SUB-0487796249            30.00       0.00       3.61       4.47      14.20      12.35      21.92        0.77   229.68   0.731
  SUB-0487888479            30.00       0.00       3.98       7.05       8.85      11.99      18.97        1.81   450.14   0.632
  SUB-0490898671            30.00       0.00       4.02       6.35      11.09      10.55      19.63        3.29   839.90   0.654
  SUB-0491189435            30.00       0.00       3.37       5.09      10.91      14.72      21.54        0.45   155.67   0.718
  SUB-0491195499            30.00       0.00       2.57       4.39      11.30      11.74      23.04        0.19   110.64   0.768
  SUB-0493087963            30.00       0.00       3.64       5.91      10.55      12.48      20.45        1.10   314.88   0.682
  SUB-0493896210            30.00       0.00       4.12       7.53       6.75      13.54      18.36        1.03   231.04   0.612
  SUB-0494489300            30.00       0.00       3.05       4.89      10.60      14.03      22.06        0.15    62.35   0.735
  SUB-0494989549            30.00       0.00       4.32       7.79       8.50      10.98      17.89        1.60   361.11   0.596
  SUB-0495696932            30.00       0.00       3.14       5.36      11.19      10.31      21.50        0.19    72.33   0.717
  SUB-0496298334            30.00       0.00       2.96       5.06      11.18      10.81      21.99        0.09    38.86   0.733
  SUB-0499195448            30.00       0.00       3.38       4.74      12.56      13.33      21.88        2.07   701.85   0.729
  SUB-0499597916            30.00       0.00       3.75       6.93       6.67      15.50      19.31        1.12   270.12   0.644
  SUB-0499996171            30.00       0.00       4.07       7.32       8.43      12.03      18.62        3.72   887.44   0.621
  SUB-0500587044            30.00       0.00       3.36       6.74       6.66      13.23      19.90        0.42   130.05   0.663
  SUB-0500588594            30.00       0.00       3.93       6.34      10.01      13.27      19.74        1.10   266.08   0.658
  SUB-0500898305            30.00       0.00       4.04       7.35       8.04      12.11      18.61        2.69   658.89   0.620
  SUB-0502389274            30.00       0.00       4.11       6.68       9.98      12.62      19.20        3.98   896.17   0.640
  SUB-0505088729            30.00       0.00       4.15       6.83      10.07      11.71      19.02        2.59   595.07   0.634
  SUB-0505287587            30.00       0.00       3.74       7.47       6.18      13.16      18.79        1.06   269.34   0.626
  SUB-0506796128            30.00       0.00       3.80       5.86      11.09      11.00      20.33        1.15   338.57   0.678
  SUB-0508095391            30.00       0.00       4.22       6.71      10.80      11.03      19.07        3.65   820.09   0.636
  SUB-0508398054            30.00       0.00       4.06       4.96      14.16      11.96      20.98        5.23  1185.26   0.699
  SUB-0511398238            30.00       0.00       4.34       8.04       6.96      13.30      17.62        1.66   316.71   0.587
  SUB-0511587824            30.00       0.00       3.81       7.74       5.26      13.77      18.45        1.10   260.22   0.615
  SUB-0511789243            30.00       0.00       2.68       3.99      14.03       9.30      23.33        0.11    52.04   0.778
  SUB-0511996828            30.00       0.00       2.90       4.96      11.20      10.94      22.14        0.27   112.64   0.738
  SUB-0512295363            30.00       0.00       2.52       4.30      11.31      11.87      23.19        0.10    64.61   0.773
  SUB-0512596092            30.00       0.00       4.25       9.29       2.60      13.89      16.45        0.88   140.63   0.548
  SUB-0513787907            30.00       0.00       3.07       4.54      13.90       8.48      22.38        0.24    91.71   0.746
  SUB-0513796865            30.00       0.00       3.34       4.59      12.76      13.56      22.08        0.57   200.89   0.736
  SUB-0514398148            30.00       0.00       3.80       6.83       9.75       9.62      19.37        0.23    67.45   0.646
  SUB-0514698217            30.00       0.00       3.81       6.47      10.99       8.74      19.72        0.67   191.38   0.657
  SUB-0516087255            30.00       0.00       3.67       5.74      10.78      13.17      20.59        1.49   418.66   0.686
  SUB-0518296055            30.00       0.00       4.36       7.31      10.03      10.26      18.34        1.27   281.92   0.611
  SUB-0518887361            30.00       0.00       4.18       7.04       9.40      12.21      18.79        2.71   609.10   0.626
  SUB-0518988421            30.00       0.00       3.77       6.28       9.76      12.97      19.96        1.03   274.15   0.665
  SUB-0520487800            30.00       0.00       3.21       5.32      10.41      13.01      21.47        0.33   120.07   0.716
  SUB-0520887433            30.00       0.00       3.27       5.45      10.24      13.04      21.29        0.32   113.44   0.710
  SUB-0521089212            30.00       0.00       4.11       6.55      10.18      12.93      19.34        2.13   475.95   0.645
  SUB-0521288839            30.00       0.00       4.03       8.54       4.01      13.68      17.43        1.96   392.79   0.581
  SUB-0522996129            30.00       0.00       3.76       6.57       9.00      12.74      19.68        3.55   956.24   0.656
  SUB-0523095294            30.00       0.00       4.33       7.21       9.88      10.88      18.46        6.20  1376.03   0.615
  SUB-0523587538            30.00       0.00       3.74       6.09      10.01      13.37      20.17        0.79   211.09   0.672
  SUB-0524595388            30.00       0.00       3.47       5.74       9.33      14.83      20.80        1.27   395.63   0.693
  SUB-0525596970            30.00       0.00       4.00       5.58      12.87      11.05      20.42        2.11   508.87   0.681
  SUB-0526398337            30.00       0.00       3.39       4.28      13.34      14.72      22.33        1.27   459.85   0.744
  SUB-0527088404            30.00       0.00       4.28       7.14      10.13      10.47      18.59        4.60  1045.90   0.620
  SUB-0527896727            30.00       0.00       2.96       5.05      11.22      10.77      22.00        0.07    26.73   0.733
  SUB-0534387763            30.00       0.00       4.01       7.09       8.32      13.27      18.90        1.58   362.24   0.630
  SUB-0536395199            30.00       0.00       2.64       4.51      11.29      11.57      22.85        0.27   144.06   0.762
  SUB-0539096702            30.00       0.00       3.51       4.14      14.63      13.05      22.35        0.72   229.86   0.745
  SUB-0539988777            30.00       0.00       3.64       6.03       9.61      13.90      20.33        0.65   181.22   0.678
  SUB-0541998582            30.00       0.00       3.25       4.04      14.21      13.14      22.71        0.41   158.18   0.757
  SUB-0542996630            30.00       0.00       4.01       5.62      12.58      11.79      20.38        2.65   631.62   0.679
  SUB-0543387739            30.00       0.00       2.92       4.34      13.95       8.80      22.74        0.13    55.67   0.758
  SUB-0543598322            30.00       0.00       3.79       4.63      14.53      11.45      21.58        6.44  1699.00   0.719
  SUB-0543794337            30.00       0.00       2.57       4.38      11.31      11.74      23.05        0.14    78.89   0.768
  SUB-0544694044            30.00       0.00       3.87       6.61       9.56      12.17      19.53        2.47   641.14   0.651
  SUB-0546193745            30.00       0.00       3.82       5.94      10.86      12.89      20.25        1.64   426.18   0.675
  SUB-0546193772            30.00       0.00       2.88       4.90      11.26      11.00      22.22        0.22    94.27   0.741
  SUB-0546288756            30.00       0.00       3.84       6.09      10.55      12.80      20.07        2.69   694.99   0.669
  SUB-0546394513            30.00       0.00       3.34       5.56      10.27      12.81      21.10        0.58   195.80   0.703
  SUB-0546893576            30.00       0.00       3.94       6.54       9.96      11.99      19.53        3.16   805.29   0.651
  SUB-0546894085            30.00       0.00       3.29       5.54      11.28      10.11      21.17        0.58   204.01   0.706
  SUB-0547295361            30.00       0.00       4.36       8.14       7.87      10.73      17.50        2.78   628.68   0.583
  SUB-0547393476            30.00       0.00       3.43       5.58      10.95      11.83      20.99        1.29   419.01   0.700
  SUB-0547994256            30.00       0.00       3.20       5.44      10.22      12.55      21.36        0.50   179.35   0.712
  SUB-0548189022            30.00       0.00       4.08       6.92       9.64      11.73      19.00        1.54   365.64   0.633
  SUB-0549787722            30.00       0.00       3.89       7.39       7.32      12.57      18.72        1.48   371.86   0.624
  SUB-0550497704            30.00       0.00       4.02       4.65      14.65      12.44      21.33        4.99  1153.01   0.711
  SUB-0551089113            30.00       0.00       3.81       6.32       9.71      13.18      19.87        0.54   139.43   0.662
  SUB-0551695109            30.00       0.00       2.86       2.71      16.70       7.73      24.44        0.08    60.67   0.815
  SUB-0553696609            30.00       0.00       3.30       3.61      15.18      14.28      23.09        0.86   346.81   0.770
  SUB-0553798766            30.00       0.00       3.28       4.10      14.11      13.17      22.63        0.54   200.63   0.754
  SUB-0556094466            30.00       0.00       3.70       5.69      10.71      13.93      20.62        0.51   140.51   0.687
  SUB-0558298901            30.00       0.00       4.52       5.24      14.44      11.60      20.24        5.65   999.48   0.675
  SUB-0559088714            30.00       0.00       3.67       6.53       8.52      13.40      19.80        1.04   282.42   0.660
  SUB-0559089352            30.00       0.00       3.79       6.29       9.86      12.83      19.92        1.01   266.74   0.664
  SUB-0561087692            30.00       0.00       4.96       8.12      10.09       9.25      16.92        8.04  1407.86   0.564
  SUB-0562097630            30.00       0.00       3.43       5.53      10.86      12.39      21.04        0.62   199.24   0.701
  SUB-0562196555            30.00       0.00       3.01       4.71      12.98       9.31      22.27        0.15    61.34   0.742
  SUB-0562894868            30.00       0.00       3.26       5.46      10.14      13.15      21.28        0.38   133.11   0.709
  SUB-0563294420            30.00       0.00       3.57       5.67      10.70      13.03      20.76        0.49   146.47   0.692
  SUB-0563595033            30.00       0.00       2.63       4.50      11.29      11.58      22.87        0.22   113.88   0.762
  SUB-0564595048            30.00       0.00       3.40       3.67      14.94      14.17      22.93        1.90   759.96   0.764
  SUB-0566194976            30.00       0.00       1.96       0.00      28.04       0.00      28.04        0.19   121.70   0.935
  SUB-0566589201            30.00       0.00       4.14       7.14       9.18      11.95      18.72        1.97   453.95   0.624
  SUB-0567794938            30.00       0.00       2.76       4.70      11.26      11.31      22.54        0.35   166.21   0.751
  SUB-0569889302            30.00       0.00       3.83       6.29      10.17      12.39      19.88        3.00   786.31   0.663
  SUB-0570293166            30.00       0.00       3.46       5.38      11.45      12.21      21.16        0.62   197.61   0.705
  SUB-0570489603            30.00       0.00       3.75       6.35      11.04       8.87      19.90        0.96   282.44   0.663
  SUB-0571094984            30.00       0.00       2.59       4.43      11.30      11.69      22.98        0.16    88.46   0.766
  SUB-0571194368            30.00       0.00       4.10       6.99       9.49      11.84      18.91        4.72  1109.62   0.630
  SUB-0571595074            30.00       0.00       4.25       7.02      10.00      11.33      18.72        7.15  1597.04   0.624
  SUB-0572888668            30.00       0.00       2.49       3.71      14.09       9.70      23.80        0.05    27.88   0.793
  SUB-0573997737            30.00       0.00       4.47       7.41       9.95      10.68      18.13        9.39  1949.01   0.604
  SUB-0574797549            30.00       0.00       3.42       4.76      12.88      12.61      21.83        1.00   328.83   0.728
  SUB-0574997377            30.00       0.00       3.77       4.34      14.98      12.15      21.90        2.33   626.06   0.730
  SUB-0576394449            30.00       0.00       3.89       6.29      10.40      12.29      19.83        1.13   288.83   0.661
  SUB-0577788652            30.00       0.00       4.20       6.76      10.39      11.69      19.04        2.55   570.78   0.635
  SUB-0577997799            30.00       0.00       3.86       5.02      13.83      11.16      21.12        3.53   904.86   0.704
  SUB-0578699027            30.00       0.00       3.16       3.82      14.42      13.55      23.02        0.27   115.55   0.767
  SUB-0579195113            30.00       0.00       4.14       7.26       9.08      11.33      18.60        4.32  1028.96   0.620
  SUB-0579296446            30.00       0.00       4.28       7.00      10.75       8.97      18.72        1.49   357.10   0.624
  SUB-0582494544            30.00       0.00       3.43       5.47      10.18      14.42      21.09        0.24    77.53   0.703
  SUB-0590198979            30.00       0.00       3.89       4.62      14.27      13.18      21.49        1.42   354.97   0.716
  SUB-0590593035            30.00       0.00       4.19       7.20       9.17      11.99      18.61        4.83  1085.32   0.620
  SUB-0590894490            30.00       0.00       3.78       5.87      10.83      13.08      20.35        1.62   429.14   0.678
  SUB-0592294849            30.00       0.00       2.63       4.49      11.29      11.60      22.89        0.18    97.62   0.763
  SUB-0593398966            30.00       0.00       3.40       4.07      14.71      12.64      22.53        0.56   191.23   0.751
  SUB-0596394758            30.00       0.00       3.40       5.61      10.96      11.38      21.00        1.71   564.68   0.700
  SUB-0598096326            30.00       0.00       4.07       5.57      12.07      14.10      20.36        3.82   845.94   0.679
  SUB-0599397392            30.00       0.00       3.35       3.93      14.53      13.87      22.72        0.93   344.95   0.757
  SUB-0601695474            30.00       0.00       3.19       5.99       8.73      12.12      20.82        0.16    56.28   0.694
  SUB-0603098926            30.00       0.00       3.33       4.00      14.83      12.24      22.67        0.59   208.05   0.756
  SUB-0604695519            30.00       0.00       4.16       6.94      10.05      11.07      18.91        1.65   386.71   0.630
  SUB-0605092942            30.00       0.00       3.38       5.42      12.34       8.88      21.20        0.42   142.54   0.707
  SUB-0605594394            30.00       0.00       4.09       6.78       9.89      12.00      19.13        2.17   509.07   0.638
  SUB-0606389576            30.00       0.00       3.58       6.07      11.11       9.24      20.36        1.37   430.06   0.679
  SUB-0606496273            30.00       0.00       3.61       6.93       6.87      13.91      19.46        0.83   222.90   0.649
  SUB-0607397171            30.00       0.00       4.55       5.73      13.65      10.99      19.72        7.88  1412.33   0.657
  SUB-0612398887            30.00       0.00       3.43       4.16      14.50      12.67      22.41        0.29    97.29   0.747
  SUB-0612997351            30.00       0.00       3.03       5.12      11.40      10.46      21.85        0.40   158.14   0.728
  SUB-0616288507            30.00       0.00       3.91       8.84       1.10      16.15      17.25        0.56   110.77   0.575
  SUB-0619695768            30.00       0.00       3.36       5.73      11.14       9.78      20.91        0.26    87.27   0.697
  SUB-0623098843            30.00       0.00       3.95       5.20      13.20      12.57      20.85        1.82   438.97   0.695
  SUB-0624195833            30.00       0.00       3.20       5.48      11.08      10.25      21.32        0.41   148.40   0.711
  SUB-0625296156            30.00       0.00       4.18       6.80      11.33       8.20      19.02        1.14   280.26   0.634
  SUB-0625394792            30.00       0.00       3.47       5.89       9.71      13.08      20.64        1.73   535.44   0.688
  SUB-0626294807            30.00       0.00       3.82       5.89      11.26      12.10      20.29        4.50  1194.36   0.676
  SUB-0626993018            30.00       0.00       3.36       5.14      10.95      14.30      21.50        0.53   180.59   0.717
  SUB-0629395811            30.00       0.00       4.39       8.49       6.19      12.67      17.12        1.36   263.90   0.571
  SUB-0629993066            30.00       0.00       3.48       5.53      10.16      14.47      21.00        0.57   177.93   0.700
  SUB-0630798811            30.00       0.00       3.58       6.09      11.09       9.26      20.33        0.49   153.33   0.678
  SUB-0632793331            30.00       0.00       2.93       4.65      12.76       9.68      22.43        0.18    76.01   0.748
  SUB-0633696103            30.00       0.00       2.99       5.11      11.22      10.68      21.89        0.33   132.56   0.730
  SUB-0633896580            30.00       0.00       3.83       6.71       8.78      12.99      19.46        0.56   144.00   0.649
  SUB-0633898798            30.00       0.00       3.85       6.03      11.50      10.80      20.12        0.93   248.60   0.671
  SUB-0634096680            30.00       0.00       3.37       5.75      11.07       9.87      20.89        0.28    96.10   0.696
  SUB-0638097244            30.00       0.00       4.48       7.50      10.76       7.26      18.02        1.70   379.05   0.601
  SUB-0638596070            30.00       0.00       4.19       8.66       4.78      12.93      17.14        1.39   280.67   0.571
  SUB-0638598642            30.00       0.00       4.30       6.31      12.00      10.58      19.40        2.90   624.74   0.647
  SUB-0639293006            30.00       0.00       3.92       6.48       9.75      12.92      19.61        0.74   182.27   0.654
  SUB-0639596667            30.00       0.00       3.98       6.66       9.71      12.42      19.36        2.44   593.78   0.645
  SUB-0640497180            30.00       0.00       2.80       4.82      11.12      11.27      22.38        0.14    62.01   0.746
  SUB-0641188111            30.00       0.00       4.29       7.91       8.80       9.09      17.80        5.75  1426.45   0.593
  SUB-0641598636            30.00       0.00       4.17       4.96      14.34      11.88      20.87        4.48   961.95   0.696
  SUB-0641896264            30.00       0.00       4.21       7.22       9.03      12.41      18.57        3.65   794.75   0.619
  SUB-0644994445            30.00       0.00       3.97       7.02       8.75      12.14      19.02        6.25  1562.33   0.634
  SUB-0645295714            30.00       0.00       3.75       6.72       8.42      13.12      19.53        1.80   473.20   0.651
  SUB-0645497146            30.00       0.00       3.01       5.14      11.21      10.64      21.86        0.22    87.51   0.729
  SUB-0645793289            30.00       0.00       3.67       6.22      10.78       9.86      20.12        0.80   240.51   0.671
  SUB-0646488304            30.00       0.00       3.65       7.35       6.13      13.19      18.99        1.75   464.19   0.633
  SUB-0647996613            30.00       0.00       3.10       4.58      13.89       8.44      22.32        0.19    70.63   0.744
  SUB-0649197442            30.00       0.00       3.29       5.60      11.19       9.92      21.11        0.13    45.14   0.704
  SUB-0649692939            30.00       0.00       3.61       6.14       9.60      12.96      20.25        3.23   926.94   0.675
  SUB-0654493013            30.00       0.00       3.97       6.73       9.53      12.32      19.30        4.48  1098.57   0.643
  SUB-0657997413            30.00       0.00       5.17       9.80       6.33      11.10      15.03        3.41   513.47   0.501
  SUB-0658598695            30.00       0.00       3.61       4.21      14.63      13.29      22.18        2.62   786.16   0.739
  SUB-0660493291            30.00       0.00       3.85       6.08      10.13      14.08      20.07        1.05   259.69   0.669
  SUB-0661386834            30.00       0.00       4.63       9.70       3.45      13.36      15.67        4.27   604.06   0.522
  SUB-0661988558            30.00       0.00       2.84       4.86      11.25      11.06      22.30        0.56   244.90   0.743
  SUB-0663797375            30.00       0.00       4.28       6.62      11.26      10.33      19.11        0.99   221.97   0.637
  SUB-0664389843            30.00       0.00       3.81       8.07       4.41      13.70      18.11        0.34    77.89   0.604
  SUB-0664391770            30.00       0.00       3.81       6.55      10.68       8.96      19.64        5.86  1692.55   0.655
  SUB-0665893374            30.00       0.00       3.99       6.74       9.43      12.65      19.28        2.49   598.72   0.643
  SUB-0667395878            30.00       0.00       5.08       8.56       9.43       9.46      16.36        5.63   945.71   0.545
  SUB-0668594356            30.00       0.00       2.62       4.46      11.28      11.73      22.92        0.31   167.09   0.764
  SUB-0668897789            30.00       0.00       3.29       4.47      12.72      13.48      22.24        0.52   198.10   0.741
  SUB-0669294348            30.00       0.00       3.65       6.21      11.05       9.09      20.14        4.16  1269.77   0.671
  SUB-0670288090            30.00       0.00       3.54       6.20       8.63      14.09      20.26        0.81   235.47   0.675
  SUB-0670798644            30.00       0.00       3.98       5.66      12.25      12.01      20.36        2.03   496.57   0.679
  SUB-0671188779            30.00       0.00       2.92       4.99      11.23      10.85      22.08        0.63   263.93   0.736
  SUB-0671788306            30.00       0.00       2.77       4.12      14.00       9.12      23.12        0.07    33.02   0.771
  SUB-0673187965            30.00       0.00       3.40       6.01       9.45      12.26      20.59        0.91   294.06   0.686
  SUB-0673287340            30.00       0.00       4.73       9.46       5.65      11.09      15.82        6.65  1267.59   0.527
  SUB-0673690064            30.00       0.00       3.82       8.39       2.70      15.09      17.79        0.21    42.41   0.593
  SUB-0674497873            30.00       0.00       3.27       4.95      11.91      12.05      21.78        0.55   198.97   0.726
  SUB-0674995378            30.00       0.00       3.64       6.46       8.40      13.88      19.90        0.65   177.30   0.663
  SUB-0675888529            30.00       0.00       3.69       7.21       5.92      14.84      19.10        1.29   315.93   0.637
  SUB-0678597241            30.00       0.00       4.09       8.65       4.33      12.93      17.27        1.50   315.68   0.576
  SUB-0680389001            30.00       0.00       2.97       5.08      11.18      10.77      21.95        0.71   289.61   0.732
  SUB-0680595252            30.00       0.00       3.69       6.03      10.28      12.62      20.28        1.87   522.76   0.676
  SUB-0680886436            30.00       0.00       4.16       8.88       3.96      13.00      16.95        0.87   172.72   0.565
  SUB-0682188359            30.00       0.00       3.44       6.10       8.09      14.96      20.47        0.36   111.44   0.682
  SUB-0682195490            30.00       0.00       3.87       8.59       2.11      15.43      17.54        0.66   129.40   0.585
  SUB-0683788790            30.00       0.00       3.60       6.91       5.81      15.89      19.49        0.96   257.73   0.650
  SUB-0684993343            30.00       0.00       4.92       9.57       6.05      11.07      15.51        6.89  1195.41   0.517
  SUB-0685495221            30.00       0.00       4.05       7.03       9.18      11.75      18.92        4.86  1184.57   0.631
  SUB-0686087997            30.00       0.00       3.44       6.03       8.56      14.43      20.53        0.85   263.63   0.684
  SUB-0687386275            30.00       0.00       3.83       6.49      11.02       8.66      19.68       10.13  2882.66   0.656
  SUB-0687694500            30.00       0.00       3.69       7.61       4.58      14.99      18.71        1.42   334.73   0.624
  SUB-0691286604            30.00       0.00       4.10       8.12       6.11      12.54      17.79        2.30   519.41   0.593
  SUB-0691388751            30.00       0.00       3.54       6.43       7.53      14.88      20.04        0.47   134.26   0.668
  SUB-0691395272            30.00       0.00       3.58       6.82       7.06      13.86      19.60        0.92   254.47   0.653
  SUB-0691397060            30.00       0.00       4.47       7.75       8.70      11.87      17.79        5.75  1148.15   0.593
  SUB-0692397964            30.00       0.00       4.34       7.63       9.52       9.34      18.03        1.90   448.38   0.601
  SUB-0693187630            30.00       0.00       3.71       6.27       9.68      12.72      20.02        2.10   577.44   0.667
  SUB-0693488304            30.00       0.00       3.70       7.40       5.63      14.33      18.90        0.37    91.28   0.630
  SUB-0694198036            30.00       0.00       4.17       8.58       5.35      12.05      17.26        1.36   305.68   0.575
  SUB-0694494572            30.00       0.00       5.39      11.80       1.76      11.42      12.81        4.18   414.12   0.427
  SUB-0695388729            30.00       0.00       3.62       6.56       8.10      13.66      19.83        1.48   409.74   0.661
  SUB-0696889333            30.00       0.00       3.08       5.25      11.20      10.48      21.67        2.59  1003.13   0.722
  SUB-0697689025            30.00       0.00       3.81       7.40       5.63      15.24      18.79        1.43   321.86   0.626
  SUB-0698187704            30.00       0.00       4.49       9.52       3.64      12.81      16.00        3.97   670.03   0.533
  SUB-0699488278            30.00       0.00       3.82       7.13       7.64      12.83      19.05        0.92   237.02   0.635
  SUB-0700288824            30.00       0.00       3.50       5.74       9.89      13.86      20.77        1.56   477.32   0.692
  SUB-0700593338            30.00       0.00       3.87       7.11       7.79      13.08      19.02        0.84   207.00   0.634
  SUB-0700788914            30.00       0.00       3.23       5.32       9.58      14.93      21.45        0.39   147.77   0.715
  SUB-0701787903            30.00       0.00       3.88       6.66       9.37      12.43      19.46        1.02   259.39   0.649
  SUB-0702086218            30.00       0.00       4.21       9.38       1.71      14.70      16.41        1.04   157.75   0.547
  SUB-0704595187            30.00       0.00       3.54       6.57       7.52      14.12      19.90        1.05   297.67   0.663
  SUB-0706287866            30.00       0.00       4.24       6.95       9.86      12.18      18.81        5.20  1124.02   0.627
  SUB-0709286206            30.00       0.00       4.10       8.85       3.25      13.89      17.05        3.69   673.27   0.568
  SUB-0712987736            30.00       0.00       4.21       8.76       5.04      12.00      17.02        1.12   247.03   0.567
  SUB-0713396918            30.00       0.00       4.91       9.87       5.72      10.02      15.22        1.33   259.70   0.507
  SUB-0715697900            30.00       0.00       3.70       5.21      12.35      13.03      21.09        1.47   410.67   0.703
  SUB-0716495111            30.00       0.00       3.75       6.81       9.04      11.09      19.44        2.82   801.53   0.648
  SUB-0716790453            30.00       0.00       4.27       9.35       1.83      15.18      16.38        0.70   104.94   0.546
  SUB-0716889265            30.00       0.00       3.73       7.42       5.26      15.12      18.85        1.48   347.01   0.628
  SUB-0716892249            30.00       0.00       3.42       5.83      11.12       9.63      20.75        5.82  1938.82   0.692
  SUB-0719588361            30.00       0.00       3.48       6.74       6.10      15.35      19.78        0.33    93.75   0.659
  SUB-0719998132            30.00       0.00       4.27       5.91      12.39      12.16      19.82        2.23   459.69   0.661
  SUB-0721391156            30.00       0.00       4.71       9.99       3.99      11.31      15.31        2.81   521.34   0.510
  SUB-0721798413            30.00       0.00       3.62       6.69       8.96      10.82      19.69        0.48   146.15   0.656
  SUB-0723789140            30.00       0.00       3.23       5.54       9.41      13.91      21.23        0.42   149.15   0.708
  SUB-0724889138            30.00       0.00       3.61       6.96       5.97      15.48      19.43        0.67   173.60   0.648
  SUB-0725595587            30.00       0.00       3.54       6.11       9.92      11.76      20.35        1.18   360.44   0.678
  SUB-0727092864            30.00       0.00       3.61       7.42       5.68      13.30      18.97        1.69   448.53   0.632
  SUB-0728395854            30.00       0.00       4.92       8.85       8.22       9.92      16.23        5.90  1084.60   0.541
  SUB-0728893225            30.00       0.00       3.40       5.81      11.06       9.76      20.79        1.78   597.67   0.693
  SUB-0729293436            30.00       0.00       4.15       9.34       1.18      15.34      16.52        0.80   129.57   0.551
  SUB-0729688338            30.00       0.00       4.17       7.10       9.34      11.97      18.73        4.45  1009.24   0.624
  SUB-0729895656            30.00       0.00       3.76       6.43       9.51      12.54      19.81        1.43   387.21   0.660
  SUB-0730887562            30.00       0.00       5.17       9.93       6.70       9.35      14.90       13.44  2413.83   0.497
  SUB-0732797790            30.00       0.00       3.44       3.70      15.47      13.66      22.87        0.81   281.65   0.762
  SUB-0732887572            30.00       0.00       3.06       4.82      12.86       9.26      22.12        0.33   130.42   0.737
  SUB-0733289188            30.00       0.00       3.60       5.98       9.75      13.50      20.42        1.94   556.85   0.681
  SUB-0736492157            30.00       0.00       4.03       8.52       3.96      13.94      17.45        2.01   391.83   0.582
  SUB-0738689663            30.00       0.00      14.57      12.39       0.00       0.00       0.00        0.00     0.00   0.000
  SUB-0742395851            30.00       0.00       3.89       6.67       9.20      12.77      19.44        2.09   524.33   0.648
  SUB-0742496730            30.00       0.00       4.74       7.85       9.59      11.04      17.41        4.17   750.44   0.580
  SUB-0743693945            30.00       0.00       3.50       6.28       9.90      10.33      20.22        2.90   932.51   0.674
  SUB-0745389644            30.00       0.00       2.83       4.84      11.18      11.15      22.34        1.49   663.12   0.745
  SUB-0745797707            30.00       0.00       4.38       6.06      12.47      11.60      19.56        4.51   889.33   0.652
  SUB-0746796704            30.00       0.00       3.42       5.64      11.77       9.18      20.95        0.38   125.19   0.698
  SUB-0749295959            30.00       0.00       4.28       7.32       9.27      11.65      18.39        2.85   622.62   0.613
  SUB-0750393368            30.00       0.00       4.31       7.05      10.38      10.61      18.65        4.79  1062.74   0.622
  SUB-0752688210            30.00       0.00       3.67       6.21       9.59      13.04      20.13        2.02   562.99   0.671
  SUB-0757187659            30.00       0.00       4.36       7.68       8.67      11.58      17.97        3.28   699.53   0.599
  SUB-0758193382            30.00       0.00       3.57       5.88      10.36      12.50      20.55        1.57   467.73   0.685
  SUB-0762896670            30.00       0.00       4.60       8.11       8.43      11.51      17.29        7.83  1493.47   0.576
  SUB-0763888145            30.00       0.00       4.42       9.36       3.01      14.35      16.22        3.17   449.46   0.541
  SUB-0764389431            30.00       0.00       2.60       4.44      11.29      11.67      22.97        0.10    55.13   0.766
  SUB-0765289357            30.00       0.00       3.54       7.91       1.21      17.95      18.55        0.42   129.78   0.618
  SUB-0765392043            30.00       0.00       4.02       7.23       7.39      14.50      18.76        2.98   634.38   0.625
  SUB-0766089300            30.00       0.00       4.14       7.34       8.66      11.94      18.53        6.19  1435.63   0.618
  SUB-0768189689            30.00       0.00       3.83       4.19      15.01      13.78      21.98        7.13  1867.35   0.733
  SUB-0768295838            30.00       0.00       3.85       6.34       9.91      12.87      19.81        2.37   607.14   0.660
  SUB-0769291334            30.00       0.00       4.42       9.74       2.13      13.75      15.84        2.04   287.04   0.528
  SUB-0769392051            30.00       0.00       3.65       6.23      10.95       9.17      20.12        1.34   408.04   0.671
  SUB-0769591440            30.00       0.00       4.20       9.54       0.60      15.67      16.27        1.01   165.17   0.542
  SUB-0771989688            30.00       0.00       3.18       4.32      12.85      13.97      22.50        0.41   166.46   0.750
  SUB-0772189620            30.00       0.00       3.74       5.30      12.43      12.46      20.96        2.34   638.26   0.699
  SUB-0775392247            30.00       0.00       3.97       6.15      10.42      13.82      19.89        2.52   592.03   0.663
  SUB-0776992027            30.00       0.00       2.86       4.36      13.54       9.24      22.78        0.58   252.06   0.759
  SUB-0779491038            30.00       0.00       4.71       8.96       6.89      10.98      16.33        7.66  1476.49   0.544
  SUB-0779791135            30.00       0.00       3.42       6.37       6.90      15.46      20.21        0.37   113.65   0.674
  SUB-0780996236            30.00       0.00       3.47       5.72      11.79       9.03      20.81        0.43   139.81   0.694
  SUB-0782192249            30.00       0.00       3.31       4.00      13.41      15.99      22.69        0.14    62.30   0.756
  SUB-0782796263            30.00       0.00       3.82       6.62       9.13      12.71      19.55        6.17  1600.91   0.652
  SUB-0785391732            30.00       0.00       3.79       7.27       7.39      12.30      18.94        1.51   400.31   0.631
  SUB-0785792041            30.00       0.00       2.27       0.00      27.73       0.00      27.73        0.11    58.48   0.924
  SUB-0785795423            30.00       0.00       3.23       5.39      10.48      12.60      21.39        0.76   272.27   0.713
  SUB-0785992265            30.00       0.00       3.46       4.22      13.36      15.64      22.32        0.44   160.03   0.744
  SUB-0787292164            30.00       0.00       2.95       4.18      12.43      14.08      22.88        0.23   117.55   0.763
  SUB-0787595715            30.00       0.00       3.97       6.80       9.08      12.96      19.23        1.57   375.51   0.641
  SUB-0787892668            30.00       0.00       4.10       6.75       9.85      12.39      19.15        5.43  1244.19   0.638
  SUB-0788191329            30.00       0.00       4.47       7.43       9.64      11.40      18.10        5.08  1023.50   0.603
  SUB-0789292381            30.00       0.00       3.80       4.71      13.26      14.86      21.49        0.54   144.20   0.716
  SUB-0790192397            30.00       0.00       3.87       4.82      13.23      14.67      21.31        1.89   479.93   0.710
  SUB-0793695679            30.00       0.00       3.00       5.24      10.68      11.14      21.76        0.44   176.61   0.725
  SUB-0795592147            30.00       0.00       3.59       4.66      12.98      14.45      21.74        1.39   423.00   0.725
  SUB-0796289846            30.00       0.00       3.61       5.88       9.33      15.10      20.51        0.84   238.73   0.684
  SUB-0797193452            30.00       0.00       4.57       7.67       9.83      10.16      17.76        8.87  1798.62   0.592
  SUB-0797291032            30.00       0.00       4.57       7.59       9.66      10.89      17.84        8.09  1610.05   0.595
  SUB-0797885881            30.00       0.00       4.36       8.93       5.19      11.98      16.71        3.41   705.27   0.557
  SUB-0800889681            30.00       0.00       3.23       4.36      12.71      14.42      22.41        0.61   244.74   0.747
  SUB-0800895619            30.00       0.00       3.53       4.96      12.62      12.74      21.51        2.11   649.91   0.717
  SUB-0802292482            30.00       0.00       3.46       4.22      13.36      15.65      22.33        0.22    79.61   0.744
  SUB-0804992672            30.00       0.00       4.88       8.42       8.98      10.18      16.71        5.60  1009.31   0.557
  SUB-0804993466            30.00       0.00       3.39       5.35      11.11      12.69      21.27        0.57   186.92   0.709
  SUB-0805588069            30.00       0.00       3.80       6.64       8.93      12.90      19.56        1.33   345.21   0.652
  SUB-0805592514            30.00       0.00       3.51       4.30      13.35      15.42      22.19        0.92   314.69   0.740
  SUB-0807189842            30.00       0.00       2.85       4.27      13.59       9.67      22.89        0.10    43.30   0.763
  SUB-0807389920            30.00       0.00       3.56       5.80      10.14      13.43      20.64        1.01   298.64   0.688
  SUB-0807790004            30.00       0.00       3.60       5.95       9.77      13.69      20.45        0.88   252.62   0.682
  SUB-0807890084            30.00       0.00       3.53       5.92       9.70      13.44      20.56        3.06   915.51   0.685
  SUB-0807895850            30.00       0.00       2.90       4.91      11.07      11.63      22.19        0.25   108.11   0.740
  SUB-0808895667            30.00       0.00       3.18       5.67      10.10      11.10      21.15        0.61   223.30   0.705
  SUB-0810385902            30.00       0.00       3.87       6.74       8.92      12.92      19.39        3.09   775.24   0.646
  SUB-0812188197            30.00       0.00       3.86       6.67       9.17      12.70      19.47        2.03   517.85   0.649
[...]
  1319294451.1               29.69     29.69     29.93      1.82         2.27
  1319694331.1               28.18     28.18     28.40      0.01         0.01
  1320694382.1               28.40     28.40     28.61      0.01        13.65
  1322995030.1                9.06      9.06      9.07      7.86         8.17
  1324693511.1               18.73     18.75     18.74     11.57        16.94
  1325595666.2               18.74     18.75     19.50     13.85        13.84
  1326594437.1               29.67     29.68     29.69      7.99         4.66
  1328096001.1               27.15     27.15     28.58      0.01         0.01
  1328295070.1                8.97      8.97      9.06      3.79         7.05
  1333395109.1                8.94      8.95      8.97      7.55         7.99
  1333994422.1               29.66     29.66     29.68      3.63         3.51
  1334295630.2               15.36     15.37     18.75     13.86        13.85
  1334395975.1               27.13     27.27     27.15      0.01         3.17
  1339395031.2                8.93      8.93      8.95      7.54         7.88
  1342794405.1               29.63     29.63     29.66      1.73         1.70
  1342795940.2               27.24     27.31     27.27      0.01         0.61
  1342995593.2               14.04     14.05     15.37     13.87        13.86
  1343594975.1                8.77      8.77      8.93      4.44         7.16
  1344694878.1                8.44      8.46      8.45      4.67         5.54
  1344992363.2               27.12     27.12     27.12      1.63         2.82
  1346092423.2               27.12     27.12     27.15      5.54         6.39
  1346094994.1                8.70      8.70      8.77      6.23         7.96
  1348092530.2               27.15     27.15     27.21     13.19        11.52
  1349392280.1               27.12     27.12     27.14      0.01         1.90
  1349692298.1               27.11     27.14     27.12      0.44         2.91
  1349992637.1               27.18     27.21     27.18     13.16        13.35
  1350095564.1               13.98     13.98     14.05     10.92        12.14
  1350595907.2               27.28     27.56     27.31      0.01         1.09
  1351094927.1                8.44      8.45      8.70      5.73         6.27
  1351694388.1               29.60     29.60     29.63      1.71         1.63
  1351992744.2               27.16     27.18     27.16     15.57        15.68
  1353792845.2               27.13     27.16     27.13     20.83        16.20
  1354592272.1               27.03     27.03     27.05      0.01         0.26
  1355792952.2               27.12     27.13     27.12     24.29        26.55
  1356995535.1               13.94     13.94     13.98     11.44        12.34
  1357693052.1               27.09     27.12     27.09     27.00        27.08
  1358495874.2               26.90     26.90     27.56      0.01         0.01
  1359593154.2               27.06     27.09     27.06     26.99        27.05
  1360494371.1               29.56     29.56     29.60      1.44         1.39
  1361693270.1               27.02     27.06     27.02     26.98        27.02
  1362995510.1               13.89     13.89     13.94     10.96        11.03
  1363792256.2               27.00     27.01     27.03      0.01         0.41
  1363893387.2               26.99     27.02     27.01     27.00        26.99
  1364595327.1               13.88     13.88     13.89      4.52         5.59
  1365293473.2               27.00     27.01     27.01     27.06        26.98
  1365495493.1               13.87     13.88     13.89     10.24        11.49
  1366195411.1               13.88     13.89     13.88      2.45        13.37
  1366295842.2               26.88     31.44     26.90      0.01         6.96
  1366795439.1               13.88     13.88     13.88      2.55        10.11
  1366795467.1               13.88     13.88     13.88     10.20        10.57
  1367393591.2               18.14     27.01     18.17     27.11        18.11
  1368493672.1               18.17     18.17     19.65      0.01         6.82
  1368493983.1               10.92     10.96     10.92      1.62        10.91
  1368494356.1               29.54     29.54     29.56      0.01         0.01
  1368793890.1               10.91     10.91     23.24      0.01         0.07
  1368893723.2               13.57     13.57     13.58     13.53        13.56
  1368993804.2               10.91     13.58     10.91     13.56        10.91
  1369394164.1               10.92     10.92     12.24      0.01         1.15
  1369394164.3               12.23     12.24     12.30      4.13        11.29
  1370393686.2               13.59     13.60     13.59     12.00        11.86
  1370793706.1               13.57     13.59     13.57     13.53        13.57
  1371294277.1               23.51     23.52     24.12      7.06        12.55
  1371492243.2               27.00     27.00     27.01      0.01         2.06
  1372093918.1               11.01     11.32     11.01     13.49        11.01
  1372293940.1               10.96     11.01     10.96      1.62        10.96
  1373392216.1               27.00     27.00     27.00      0.01         2.39
  1374195809.2               31.42     44.09     31.44      0.01        11.71
  1375694502.1               24.12     24.12     31.05     10.58        12.90
  1375694502.3               31.05     31.05     37.98      9.62        13.53
  1377494586.1               37.97     37.98     45.29     10.84        13.45
  1379193905.1               13.96     13.96     22.64      0.01         0.50
  1379394684.2               45.28     45.29     52.78     10.83        13.44
  1380293668.1               13.43     13.43     13.70      0.01         0.01
  1381294782.2               52.78     52.78     60.04     10.82        13.43
  1382495759.1               69.53     81.62     69.55     86.30        69.28
  1383095772.1               44.07     69.55     44.09     39.84        27.33
  1383294880.1               60.04     60.04     66.86     10.81        13.47
  1383993249.2               13.45     13.45     13.47      0.09         0.09
  1385294973.2               66.85     66.86     68.09     10.81        22.85
  1385695698.1               81.58     82.40     81.62     38.58        68.29
  1385893354.2               13.47     13.47     13.49      1.60         2.20
  1386794982.2               68.08     68.09     73.87     10.80        13.54
  1387693453.2               13.47     13.49     13.47      6.29         8.39
  1388394566.1               13.56     13.62     95.26      0.09         1.94
  1389595625.1               82.38     83.13     82.40     54.16        72.93
  1389693561.2               13.45     13.47     13.45      8.08         8.53
  1389793886.1               10.81     22.52     10.81     22.88        10.81
  1391293648.1               13.42     13.45     13.43      8.58         9.21
  1391895481.1               82.91     83.50     82.97     58.47        76.36
  1393295555.1               82.97     82.97     83.13     35.35        66.52
  1394294968.2               73.86     73.87     76.95      0.02        10.78
  1400293867.1               22.52     22.70     22.52     22.85        22.52
  1404594950.2               76.95     76.95     79.36      0.02        10.79
  1410793847.1               22.70     22.80     22.70     22.83        22.70
  1412394935.1               78.49     79.36     78.99     20.96        22.26
  1421393828.1               22.80     22.84     22.80     22.81        22.80
  1422894916.1               38.58     38.58     46.59      2.36         5.46
  1431394901.1               31.90     31.90     38.58      2.53         6.71
  1431893808.1               22.84     22.90     22.84     22.82        22.84
  1439694885.1               23.95     23.96     31.90      2.45         6.71
  1440794948.1               17.45     17.64     30.13      6.30         6.90
  1441494369.2               17.54     17.56     17.55     17.45        17.44
  1442095017.1                7.25      7.25     17.64      0.26         1.54
  1442393789.1               22.90     22.97     22.90     22.83        22.90
  1443194461.1               17.53     17.55     17.53     17.56        17.53
  1443695107.1                7.10      7.11      7.25      1.09         5.11
  1445094564.1               17.52     17.53     17.52     17.54        17.52
  1445192192.1               22.60     22.62     22.61      4.04         4.41
  1445395197.1                7.11      7.14      7.11      6.51         6.65
  1446392259.1               22.60     22.61     22.61      4.73         6.84
  1447095294.1                7.13      7.15      7.14      6.52         6.66
  1447592322.1               22.61     22.61     22.62      5.95         7.25
  1448695377.1                7.12      7.12      7.15      4.12         4.13
  1448994778.1               17.50     17.52     17.50     17.52        17.50
  1448994778.2                0.44     17.50      0.44     17.51         0.44
  1449392108.1               18.20     18.20     18.32      0.01         3.76
  1449592434.1               22.61     22.62     22.63      8.06         8.34
  1449692127.1               18.32     18.32     19.47      0.01         0.02
  1450294353.1               17.56     17.56     17.56     13.40        14.53
  1450594865.1                0.80      0.93      0.80      0.74         0.80
  1451195395.1                7.12      7.13      7.12      2.82         4.19
  1451692545.1               22.62     22.63     22.63      9.60         9.97
  1452993770.1               22.97     23.01     22.97     22.84        22.97
  1453692657.1               22.61     22.63     22.62     10.19        11.36
  1455792770.1               22.62     22.62     22.62      9.36        11.79
  1457792881.1               22.80     22.80     22.81      0.01         0.01
  1457994339.2               17.53     17.54     17.53      9.39        10.37
  1458894850.1                0.85      0.86      0.93      0.01         0.31
  1458992947.1               22.81     22.81     22.86      0.01         0.01
  1459993757.1               23.01     23.03     23.01     22.84        23.01
  1460092089.1                8.87      8.87     11.58      1.40         3.77
  1460593031.1               22.86     22.86     22.88      0.01         0.01
  1460795355.1                7.11      7.11      7.13      0.17         0.18
  1462093113.1               22.93     22.95     22.93     18.69        22.89
  1463393182.1               22.93     22.93     22.93     14.36        19.73
  1464093056.1               22.95     22.95     22.97      0.01         0.01
  1464493077.1               22.95     22.97     22.95     22.89        22.92
  1465293290.1               22.92     22.93     22.93     15.07        18.43
  1466994835.1                0.54      0.58      0.58      0.01         0.33
  1467193743.1               23.03     23.04     23.03     22.85        23.03
  1467293392.1               22.90     22.93     22.90     22.54        22.71
  1468494832.1                0.58      0.72      0.58      1.04         0.58
  1469193501.1               22.87     22.90     22.87     20.06        21.52
  1469695318.1                7.11      7.13      7.11      2.96         3.78
  1470392070.1                7.07      7.08      8.87      1.35         3.77
  1470593695.1               23.04     23.06     23.04     22.87        23.04
  1471093065.1               22.65     22.75     22.70      0.16         0.85
  1471393619.1               23.06     23.06     23.07     19.73        20.93
  1472693690.1               23.06     23.07     23.06     20.17        23.06
  1476792820.1               22.70     22.71     22.71      7.33         8.00
  1478394792.1                0.72      1.37      0.72      3.50         0.72
  1478892933.1               22.70     22.71     22.73      5.37         8.10
  1479792052.1                6.71      6.72      7.08      4.90         4.89
  1480993047.1               22.71     22.73     22.75      1.30         2.87
  1488094751.1                1.37      2.14      1.37      3.49         1.37
  1490192034.1                6.69      6.70      6.72      4.91         4.90
  1497994710.1                2.14      2.81      2.14      3.49         2.14
  1500592014.1                5.01      5.02      6.70      4.92         4.91
  1507794670.1                2.81      3.34      2.81      3.48         2.81
  1510991996.1                4.93      4.99      5.02      4.99         4.92
  1517594630.1                3.34      3.50      3.34      2.90         3.34
  1521391976.1                4.98      4.98      4.99      2.59         2.60
  1522593006.2               12.14     12.15     12.17      6.81         8.81
  1525392965.1               12.15     12.21     12.15      5.48        11.79
  1526393215.1               12.16     12.17     12.17      7.42         8.65
  1526393215.3               12.15     12.17     12.15     11.97        12.12
  1527494589.1                3.50      3.59      3.50      2.91         3.50
  1528293319.2               12.14     12.15     12.14     11.05        11.57
  1530193424.2               12.12     12.14     12.12     11.23        11.24
  1531692953.1               12.17     12.17     12.21      4.02         7.05
  1532193529.2               12.09     12.12     12.09     11.28        11.27
  1534093633.2               12.07     12.09     12.07     11.36        11.47
  1535993738.2               12.07     12.07     12.07     11.35        11.52
  1537394548.1                3.59      3.71      3.59      2.93         3.59
  1537893842.1                1.62     12.07      1.62     12.07         1.62
  1539793947.2                7.89      9.11      7.89      7.19         7.89
  1541492935.1               12.13     12.14     12.17      3.89         4.95
  1541994065.2                6.42      7.89      6.42      7.17         6.42
  1543694161.2                4.36      6.42      4.36      7.15         4.35
  1545894279.2                2.68      4.36      2.68      7.28         2.68
  1547194508.1                3.71      3.86      3.71      2.86         3.71
  1548094397.2                1.91      2.68      1.91      7.28         1.91
  1549994503.1                3.86      4.16      3.86      2.90         3.86
  1550893926.1                9.19      9.19      9.59      0.01         0.01
  1552194621.2                3.50      3.50     12.27      0.01         0.01
  1553292913.1               12.12     16.90     12.14     13.66         9.26
  1554394738.1                2.98      2.98      3.50      0.01         0.01
  1561893906.1                9.19      9.21      9.19      8.10         8.38
  1563092895.1               16.89     16.90     16.90     13.58        15.02
  1569393688.2                9.35      9.42      9.35      9.39         9.32
  1570893773.2                9.33      9.35      9.37      8.63         8.69
  1572993885.1                9.20      9.26      9.21      8.12         8.39
  1574092875.2               16.90     16.92     16.90     16.90        16.89
  1585192855.1               16.77     16.82     16.77     16.72        16.67
  1595892835.1               16.82     16.83     16.82     13.40        13.40
  1606592815.1               16.83     16.86     16.83     11.46        11.44
  1616892796.1               14.87     14.94     15.93      9.90         9.83
  1627792776.1               13.91     13.93     14.94      8.70         8.67
  
  
  ***************
  Pumping Summary
  ***************
  
  ---------------------------------------------------------------------------------------------------------
                                                  Min       Avg       Max     Total     Power    % Time Off
                        Percent   Number of      Flow      Flow      Flow    Volume     Usage    Pump Curve
  Pump                 Utilized   Start-Ups       LPS       LPS       LPS  10^6 ltr     Kw-hr    Low   High
  ---------------------------------------------------------------------------------------------------------
  0232097173.1            11.20           1      0.00      5.34    157.55     0.299      7.02    0.0    0.0
  0559894958.1             2.19           1      0.00     19.18    121.05     0.192      5.77    0.0    0.0
  DR13.P1                 52.40         257      0.00    139.64    150.00    37.890   1720.44    0.0   40.0
  DR13.P2                 30.91           2      0.00    132.98    150.00    21.265   1193.93    0.0    0.0
  DR16.P2                 55.80        1208      0.00    212.00    212.00    61.329   3219.82    0.0  100.0
  DR16.P3                 37.16           2      0.00    212.00    212.00    40.839   2693.22    0.0  100.0
  DR16.P4                 37.13           2      0.00    212.00    212.00    40.803   2691.54    0.0  100.0
  DR18.P1                 70.50         626      0.00   1294.64   1400.00   476.491  11032.23    0.0   42.5
  DR18.P2                 23.17          86      0.00   1180.77   1400.00   141.875   4138.49    0.0    0.4
  DR18.P3                  4.93           5      0.00   1139.75   1400.00    29.110    898.80    0.0    0.0
  DR19.P1                 17.47         728      0.00    200.00    200.00    18.108    135.37    0.0  100.0
  DR19.P2                 17.47         728      0.00    200.00    200.00    18.108    135.37    0.0  100.0
  DR19.P3                  0.00           0      0.00      0.00      0.00     0.000      0.00    0.0    0.0
  DR19.P4                  0.00           0      0.00      0.00      0.00     0.000      0.00    0.0    0.0
  DR19.P5                 15.26          94      0.00    997.62   1000.00    78.914    588.24    0.0   85.0
  DR19.P6                 10.54          63      0.00    998.78   1000.00    54.599    337.46    0.0   91.0
  DR20.P1                 17.13         138      0.00    900.00    900.00    79.927    683.25    0.0  100.0
  DR20.P2                  0.00           0      0.00      0.00      0.00     0.000      0.00    0.0    0.0
  DR20.P3                  0.00           0      0.00      0.00      0.00     0.000      0.00    0.0    0.0
  DR20.P4                  0.00           0      0.00      0.00      0.00     0.000      0.00    0.0    0.0
  DR20.P5                 43.09         282      0.00    220.00    220.00    49.147    294.36    0.0  100.0
  DR20.P6                 27.13         280      0.00    350.00    350.00    49.222    352.76    0.0  100.0
  DR22.P1                 53.83          63      0.00    255.00    255.00    71.153   1009.43    0.0  100.0
  DR22.P2                 32.45          14      0.00    255.00    255.00    42.898    504.37    0.0  100.0
  DR22.P3                  0.00           0      0.00      0.00      0.00     0.000      0.00    0.0    0.0
  DR22.P4                  0.00           0      0.00      0.00      0.00     0.000      0.00    0.0    0.0
  DR23.P1                 44.06         610      0.00   1707.20   1887.00   390.177  15153.56    0.0   38.0
  DR23.P2                 34.24         183      0.00   1663.88   1887.00   295.034  12832.06    0.0   21.6
  DR23.P3                 22.83         165      0.00   1567.00   1887.00   185.645   9048.96    0.0    0.2
  DR23.P4                  2.31           3      0.00   1401.74   1487.00    16.762    918.87    0.0    0.0
  DR34.P1                 63.37         256      0.00    120.00    120.00    39.424     69.17    0.0  100.0
  DR34.P2                 58.78         135      0.00    120.00    120.00    36.566     54.16    0.0  100.0
  DR34.P3                 54.90          25      0.00    120.00    120.00    34.155     42.48    0.0  100.0
  UP-DR23.P1               0.45          10      0.00     40.00     40.00     0.092      1.73    0.0  100.0
  UP-DR23.P2               0.08           2      0.00     40.00     40.00     0.016      0.30    0.0  100.0
  

  Analysis begun on:  Wed Jun 24 12:17:54 2026
  Analysis ended on:  Wed Jun 24 12:22:50 2026
  Total elapsed time: 00:04:56