
  EPA STORM WATER MANAGEMENT MODEL - VERSION 5.2 (Build 5.2.4)
  ------------------------------------------------------------

  WARNING 03: negative offset ignored for Link MC400_MC105
  WARNING 03: negative offset ignored for Link MC401_MC400
  WARNING 03: negative offset ignored for Link MC402_MC401
  
  ****************
  Analysis Options
  ****************
  Flow Units ............... LPS
  Process Models:
    Rainfall/Runoff ........ NO
    RDII ................... NO
    Snowmelt ............... NO
    Groundwater ............ NO
    Flow Routing ........... YES
    Ponding Allowed ........ NO
    Water Quality .......... NO
  Flow Routing Method ...... DYNWAVE
  Surcharge Method ......... EXTRAN
  Starting Date ............ 01/01/2016 00:00:00
  Ending Date .............. 01/01/2016 06:00:00
  Antecedent Dry Days ...... 5.0
  Report Time Step ......... 00:00:10
  Routing Time Step ........ 5.00 sec
  Variable Time Step ....... YES
  Maximum Trials ........... 12
  Number of Threads ........ 1
  Head Tolerance ........... 0.000100 m
  
  
  **************************        Volume        Volume
  Flow Routing Continuity        hectare-m      10^6 ltr
  **************************     ---------     ---------
  Dry Weather Inflow .......         0.123         1.228
  Wet Weather Inflow .......         0.000         0.000
  Groundwater Inflow .......         0.000         0.000
  RDII Inflow ..............         0.000         0.000
  External Inflow ..........         0.000         0.000
  External Outflow .........         0.000         0.000
  Flooding Loss ............         0.000         0.000
  Evaporation Loss .........         0.000         0.000
  Exfiltration Loss ........         0.000         0.000
  Initial Stored Volume ....         0.000         0.000
  Final Stored Volume ......         0.091         0.914
  Continuity Error (%) .....        25.574
  
  
  *************************
  Highest Continuity Errors
  *************************
  Node MC104 (47.88%)
  Node MC105 (47.24%)
  Node MC109 (21.21%)
  Node MC107 (15.57%)
  Node MC106 (14.99%)
  
  
  ***************************
  Time-Step Critical Elements
  ***************************
  None
  
  
  ********************************
  Highest Flow Instability Indexes
  ********************************
  Link MC104_MC103 (1)
  
  
  *********************************
  Most Frequent Nonconverging Nodes
  *********************************
  Node 1 (30.39%)
  Node MC103 (23.56%)
  Node MC104 (19.12%)
  Node JCT-12 (10.58%)
  Node MC106 (8.63%)
  
  
  *************************
  Routing Time Step Summary
  *************************
  Minimum Time Step           :     5.00 sec
  Average Time Step           :     5.00 sec
  Maximum Time Step           :     5.00 sec
  % of Time in Steady State   :     0.00
  Average Iterations per Step :     6.78
  % of Steps Not Converging   :    30.39
  Time Step Frequencies       :
      5.000 -  0.910 sec      :   100.00 %
      0.910 -  0.166 sec      :     0.00 %
      0.166 -  0.030 sec      :     0.00 %
      0.030 -  0.005 sec      :     0.00 %
      0.005 -  0.001 sec      :     0.00 %
  
  
  ******************
  Node Depth Summary
  ******************
  
  ---------------------------------------------------------------------------------
                                 Average  Maximum  Maximum  Time of Max    Reported
                                   Depth    Depth      HGL   Occurrence   Max Depth
  Node                 Type       Meters   Meters   Meters  days hr:min      Meters
  ---------------------------------------------------------------------------------
  JCT-12               JUNCTION     0.34     4.25     5.49     0  04:35        2.17
  MC104                JUNCTION     1.33     4.15     3.40     0  06:00        4.15
  MC105                JUNCTION     0.88     3.40     3.40     0  06:00        3.40
  MC106                JUNCTION     0.69     2.99     3.39     0  06:00        2.99
  MC107                JUNCTION     0.39     2.14     3.39     0  06:00        2.14
  MC108                JUNCTION     0.27     1.63     3.38     0  06:00        1.63
  MC109                JUNCTION     0.18     1.02     3.37     0  06:00        1.02
  MC110                JUNCTION     0.08     0.08     4.58     0  05:22        0.08
  MC111                JUNCTION     0.08     0.08     5.23     0  06:00        0.08
  MC112                JUNCTION     0.06     0.06     6.46     0  06:00        0.06
  MC113                JUNCTION     0.04     0.04     9.60     0  06:00        0.04
  MC140                JUNCTION     0.04     0.04     7.72     0  02:33        0.04
  MC400                JUNCTION     0.19     1.20     3.40     0  06:00        1.20
  MC401                JUNCTION     0.11     0.40     3.40     0  06:00        0.40
  MC402                JUNCTION     0.10     0.14     3.39     0  06:00        0.14
  MC403                JUNCTION     0.11     0.11     3.60     0  05:18        0.11
  MC404                JUNCTION     0.08     0.09     4.54     0  05:14        0.09
  MC405                JUNCTION     0.09     0.09     5.54     0  05:10        0.09
  MC406                JUNCTION     0.04     0.04     8.44     0  05:10        0.04
  MC407                JUNCTION     0.05     0.05    14.24     0  05:04        0.05
  MC410                JUNCTION     0.04     0.04     8.03     0  03:47        0.04
  MC500                JUNCTION     0.08     0.08     6.48     0  04:10        0.08
  MC501                JUNCTION     0.08     0.08     6.88     0  04:04        0.08
  MC502                JUNCTION     0.08     0.08     7.68     0  04:02        0.08
  MC503                JUNCTION     0.08     0.09     8.09     0  03:57        0.09
  MC504                JUNCTION     0.04     0.04    10.13     0  03:54        0.04
  MC103                JUNCTION     4.50     7.45     3.40     0  06:00        7.45
  1                    OUTFALL      0.00     0.00     0.00     0  00:00        0.00
  
  
  *******************
  Node Inflow Summary
  *******************
  
  -------------------------------------------------------------------------------------------------
                                  Maximum  Maximum                  Lateral       Total        Flow
                                  Lateral    Total  Time of Max      Inflow      Inflow     Balance
                                   Inflow   Inflow   Occurrence      Volume      Volume       Error
  Node                 Type           LPS      LPS  days hr:min    10^6 ltr    10^6 ltr     Percent
  -------------------------------------------------------------------------------------------------
  JCT-12               JUNCTION      4.65    18.51     0  04:32         0.1       0.115      29.170
  MC104                JUNCTION      5.86    73.33     0  02:35       0.127       0.529      91.872
  MC105                JUNCTION      0.00    88.11     0  03:04           0       0.745      89.540
  MC106                JUNCTION      1.44    36.85     0  05:35      0.0311       0.406      17.635
  MC107                JUNCTION      2.67    39.70     0  05:35      0.0577        0.44      18.440
  MC108                JUNCTION      0.00    39.77     0  05:35           0       0.414      10.195
  MC109                JUNCTION      2.37    61.14     0  05:35      0.0511       0.468      26.925
  MC110                JUNCTION      0.00     8.44     0  05:59           0       0.174       6.167
  MC111                JUNCTION      1.25     8.44     0  06:00       0.027       0.176       1.309
  MC112                JUNCTION      2.27     4.55     0  05:59      0.0491      0.0958       2.914
  MC113                JUNCTION      2.27     2.27     0  00:00      0.0491      0.0491       5.174
  MC140                JUNCTION      2.64     2.64     0  00:00      0.0571      0.0571       1.876
  MC400                JUNCTION      1.73    65.93     0  05:18      0.0373        0.37      11.220
  MC401                JUNCTION      0.00    37.01     0  05:56           0       0.346      11.220
  MC402                JUNCTION      0.00    17.12     0  06:00           0       0.338       0.914
  MC403                JUNCTION      3.00    16.61     0  05:15      0.0648       0.344       1.749
  MC404                JUNCTION      1.50    13.61     0  05:11      0.0324       0.282       1.154
  MC405                JUNCTION      4.87    12.11     0  05:10       0.105       0.255       2.004
  MC406                JUNCTION      0.01     4.46     0  05:04    0.000134      0.0927       1.529
  MC407                JUNCTION      4.45     4.45     0  00:00      0.0962      0.0962       3.942
  MC410                JUNCTION      2.78     2.78     0  00:00      0.0601      0.0601       2.798
  MC500                JUNCTION      0.00    10.32     0  04:05           0       0.216       1.285
  MC501                JUNCTION      2.37    10.32     0  04:03      0.0511       0.217       0.402
  MC502                JUNCTION      0.00     7.96     0  03:57           0       0.169       2.090
  MC503                JUNCTION      5.94     7.96     0  03:54       0.128       0.171       1.010
  MC504                JUNCTION      2.01     2.01     0  00:00      0.0435      0.0435       2.922
  MC103                JUNCTION      2.77    46.40     0  01:25      0.0598         0.3       0.000
  1                    OUTFALL       0.00     0.00     0  00:00           0           0       0.000 ltr
  
  
  **********************
  Node Surcharge Summary
  **********************
  
  Surcharging occurs when water rises above the top of the highest conduit.
  ---------------------------------------------------------------------
                                               Max. Height   Min. Depth
                                   Hours       Above Crown    Below Rim
  Node                 Type      Surcharged         Meters       Meters
  ---------------------------------------------------------------------
  JCT-12               JUNCTION        1.41          3.947        0.000
  MC104                JUNCTION        2.94          3.262        2.502
  MC105                JUNCTION        0.71          0.999        2.249
  MC106                JUNCTION        1.96          2.371        2.425
  MC107                JUNCTION        1.23          1.589        3.560
  MC108                JUNCTION        0.79          1.083        3.851
  MC400                JUNCTION        0.42          0.669        2.202
  MC103                JUNCTION        3.40          3.562        2.482
  
  
  *********************
  Node Flooding Summary
  *********************
  
  Flooding refers to all water that overflows a node, whether it ponds or not.
  --------------------------------------------------------------------------
                                                             Total   Maximum
                                 Maximum   Time of Max       Flood    Ponded
                        Hours       Rate    Occurrence      Volume     Depth
  Node                 Flooded       LPS   days hr:min    10^6 ltr    Meters
  --------------------------------------------------------------------------
  JCT-12                  0.01      9.14      0  04:35       0.000     0.000
  
  
  ***********************
  Outfall Loading Summary
  ***********************
  
  -----------------------------------------------------------
                         Flow       Avg       Max       Total
                         Freq      Flow      Flow      Volume
  Outfall Node           Pcnt       LPS       LPS    10^6 ltr
  -----------------------------------------------------------
  1                      0.00      0.00      0.00       0.000
  -----------------------------------------------------------
  System                 0.00      0.00      0.00       0.000
  
  
  ********************
  Link Flow Summary
  ********************
  
  -----------------------------------------------------------------------------
                                 Maximum  Time of Max   Maximum    Max/    Max/
                                  |Flow|   Occurrence   |Veloc|    Full    Full
  Link                 Type          LPS  days hr:min     m/sec    Flow   Depth
  -----------------------------------------------------------------------------
  CDT-23               CONDUIT     13.86     0  04:32      0.40    0.24    1.00
  MC104_MC103          CONDUIT     38.99     0  01:25      0.32    0.08    1.00
  MC105_MC104          CONDUIT     52.53     0  01:43      0.59    0.14    1.00
  MC106_MC105          CONDUIT     35.41     0  05:35      0.63    0.20    1.00
  MC107_MC106          CONDUIT     37.03     0  05:35      0.62    0.21    1.00
  MC108_MC107          CONDUIT     39.77     0  05:35      0.64    0.32    1.00
  MC109_MC108          CONDUIT     39.82     0  05:35      0.64    0.32    1.00
  MC110_MC109          CONDUIT      9.47     0  05:24      0.59    0.17    0.63
  MC111_MC110          CONDUIT      8.44     0  05:59      0.62    0.14    0.25
  MC112_MC111          CONDUIT      4.55     0  06:00      0.55    0.16    0.26
  MC113_MC112          CONDUIT      2.27     0  05:59      0.50    0.07    0.17
  MC140_MC111          CONDUIT      2.64     0  02:33      0.55    0.07    0.18
  MC400_MC105          CONDUIT     45.24     0  05:18      0.62    0.36    1.00
  MC401_MC400          CONDUIT     20.40     0  05:56      0.61    0.16    0.94
  MC402_MC401          CONDUIT     17.31     0  05:46      0.65    0.12    0.58
  MC403_MC402          CONDUIT     17.12     0  06:00      0.64    0.12    0.23
  MC404_MC403          CONDUIT     13.61     0  05:15      0.56    0.08    0.21
  MC405_MC404          CONDUIT     12.11     0  05:11      0.66    0.12    0.22
  MC406_MC405          CONDUIT      4.46     0  05:10      0.71    0.02    0.11
  MC407_MC406          CONDUIT      4.45     0  05:04      0.72    0.10    0.21
  MC410_MC405          CONDUIT      2.78     0  03:48      0.57    0.07    0.18
  MC500_MC109          CONDUIT     10.32     0  05:24      0.69    0.16    0.26
  MC501_MC500          CONDUIT     10.32     0  04:05      0.71    0.15    0.26
  MC502_MC501          CONDUIT      7.96     0  04:03      0.58    0.15    0.25
  MC503_MC502          CONDUIT      7.96     0  03:57      0.57    0.15    0.25
  MC504_MC503          CONDUIT      2.01     0  03:54      0.49    0.06    0.16
  
  
  ***************************
  Flow Classification Summary
  ***************************
  
  -------------------------------------------------------------------------------------
                      Adjusted    ---------- Fraction of Time in Flow Class ---------- 
                       /Actual         Up    Down  Sub   Sup   Up    Down  Norm  Inlet 
  Conduit               Length    Dry  Dry   Dry   Crit  Crit  Crit  Crit  Ltd   Ctrl  
  -------------------------------------------------------------------------------------
  CDT-23                  1.00   0.00  0.00  0.00  0.96  0.00  0.00  0.04  0.65  0.00
  MC104_MC103             1.00   0.00  0.00  0.00  0.91  0.00  0.00  0.09  0.12  0.00
  MC105_MC104             1.00   0.00  0.00  0.00  0.74  0.00  0.00  0.26  0.22  0.00
  MC106_MC105             1.00   0.00  0.00  0.00  0.48  0.00  0.00  0.52  0.04  0.00
  MC107_MC106             1.00   0.00  0.00  0.00  0.41  0.00  0.00  0.59  0.10  0.00
  MC108_MC107             1.00   0.00  0.00  0.00  0.28  0.00  0.00  0.72  0.07  0.00
  MC109_MC108             1.00   0.00  0.00  0.00  0.19  0.00  0.00  0.81  0.06  0.00
  MC110_MC109             1.00   0.00  0.00  0.00  0.10  0.00  0.00  0.90  0.10  0.00
  MC111_MC110             1.00   0.00  0.00  0.00  0.00  0.00  0.00  1.00  0.00  0.00
  MC112_MC111             1.00   0.00  0.00  0.00  0.00  0.00  0.00  1.00  0.00  0.00
  MC113_MC112             1.00   0.00  0.00  0.00  0.00  0.00  0.00  1.00  0.00  0.00
  MC140_MC111             1.00   0.00  0.00  0.00  0.00  0.00  0.00  1.00  0.00  0.00
  MC400_MC105             1.00   0.00  0.00  0.00  0.18  0.00  0.00  0.82  0.04  0.00
  MC401_MC400             1.00   0.00  0.00  0.00  0.12  0.00  0.00  0.88  0.07  0.00
  MC402_MC401             1.00   0.00  0.00  0.00  0.89  0.00  0.00  0.11  0.03  0.00
  MC403_MC402             1.00   0.00  0.00  0.00  0.00  0.00  0.00  1.00  0.00  0.00
  MC404_MC403             1.00   0.00  0.00  0.00  1.00  0.00  0.00  0.00  0.96  0.00
  MC405_MC404             1.00   0.00  0.00  0.00  0.00  0.00  0.00  1.00  0.00  0.00
  MC406_MC405             1.00   0.00  0.00  0.00  0.00  0.00  0.00  1.00  0.00  0.00
  MC407_MC406             1.00   0.00  0.00  0.00  0.00  0.00  0.00  1.00  0.00  0.00
  MC410_MC405             1.00   0.00  0.00  0.00  0.00  0.00  0.00  1.00  0.00  0.00
  MC500_MC109             1.00   0.00  0.00  0.00  0.00  0.00  0.00  1.00  0.00  0.00
  MC501_MC500             1.00   0.00  0.00  0.00  0.00  0.00  0.00  1.00  0.00  0.00
  MC502_MC501             1.00   0.00  0.00  0.00  0.00  0.00  0.00  1.00  0.00  0.00
  MC503_MC502             1.00   0.00  0.00  0.00  0.00  0.00  0.00  1.00  0.00  0.00
  MC504_MC503             1.00   0.00  0.00  0.00  0.00  0.00  0.00  1.00  0.00  0.00
  
  
  *************************
  Conduit Surcharge Summary
  *************************
  
  ----------------------------------------------------------------------------
                                                           Hours        Hours 
                         --------- Hours Full --------   Above Full   Capacity
  Conduit                Both Ends  Upstream  Dnstream   Normal Flow   Limited
  ----------------------------------------------------------------------------
  CDT-23                      1.41      1.41      5.01      0.01         0.01
  MC104_MC103                 2.94      2.94      3.40      0.01         0.01
  MC105_MC104                 2.25      2.25      2.99      0.01         0.01
  MC106_MC105                 2.07      2.07      2.37      0.01         0.01
  MC107_MC106                 1.25      1.25      1.96      0.01         0.01
  MC108_MC107                 0.89      0.89      1.23      0.01         0.01
  MC109_MC108                 0.38      0.38      0.79      0.01         0.01
  MC110_MC109                 0.01      0.01      0.40      0.01         0.01
  MC400_MC105                 0.54      0.54      0.71      0.01         0.01
  MC401_MC400                 0.01      0.01      0.42      0.01         0.01
  

  Analysis begun on:  Wed Jun 24 12:22:50 2026
  Analysis ended on:  Wed Jun 24 12:22:50 2026
  Total elapsed time: < 1 sec