
  EPA STORM WATER MANAGEMENT MODEL - VERSION 5.2 (Build 5.2.4)
  ------------------------------------------------------------

  WARNING 04: minimum elevation drop used for Conduit 1062
  WARNING 03: negative offset ignored for Link 1492
  WARNING 03: negative offset ignored for Link 1493
  WARNING 04: minimum elevation drop used for Conduit 1984
  WARNING 03: negative offset ignored for Link 2618
  WARNING 04: minimum elevation drop used for Conduit 2618
  WARNING 08: elevation drop exceeds length for Conduit 2627
  WARNING 04: minimum elevation drop used for Conduit 29011
  WARNING 03: negative offset ignored for Link 3166
  WARNING 04: minimum elevation drop used for Conduit 4197
  WARNING 04: minimum elevation drop used for Conduit 4292
  WARNING 04: minimum elevation drop used for Conduit 4350
  WARNING 04: minimum elevation drop used for Conduit 4351
  WARNING 04: minimum elevation drop used for Conduit 4352
  WARNING 04: minimum elevation drop used for Conduit 70028
  WARNING 04: minimum elevation drop used for Conduit 70030
  WARNING 04: minimum elevation drop used for Conduit 70071
  WARNING 04: minimum elevation drop used for Conduit 70132
  WARNING 04: minimum elevation drop used for Conduit 71034
  WARNING 04: minimum elevation drop used for Conduit 71037
  WARNING 04: minimum elevation drop used for Conduit 74892
  WARNING 04: minimum elevation drop used for Conduit 74905
  WARNING 03: negative offset ignored for Link CDT-367
  WARNING 03: negative offset ignored for Link CDT-387
  WARNING 04: minimum elevation drop used for Conduit CDT-81
  WARNING 04: minimum elevation drop used for Conduit STP-COOLUM_CHANNEL1
  WARNING 04: minimum elevation drop used for Conduit STP-COOLUM_CHANNEL2
  WARNING 04: minimum elevation drop used for Conduit STP-COOLUM_OUTFALL_CHANNEL
  WARNING 02: maximum depth increased for Node 109
  WARNING 02: maximum depth increased for Node 1639
  WARNING 02: maximum depth increased for Node 2980
  WARNING 02: maximum depth increased for Node 54912
  WARNING 02: maximum depth increased for Node JCT-1178
  WARNING 02: maximum depth increased for Node JCT-1180
  WARNING 02: maximum depth increased for Node JCT-1278
  WARNING 02: maximum depth increased for Node JCT-198
  WARNING 02: maximum depth increased for Node JCT-380
  WARNING 02: maximum depth increased for Node JCT-542
  WARNING 02: maximum depth increased for Node JCT-712
  WARNING 02: maximum depth increased for Node JCT-874
  
  ****************
  Analysis Options
  ****************
  Flow Units ............... LPS
  Process Models:
    Rainfall/Runoff ........ NO
    RDII ................... NO
    Snowmelt ............... NO
    Groundwater ............ NO
    Flow Routing ........... YES
    Ponding Allowed ........ NO
    Water Quality .......... NO
  Flow Routing Method ...... DYNWAVE
  Surcharge Method ......... EXTRAN
  Starting Date ............ 01/01/2002 00:00:00
  Ending Date .............. 01/01/2002 12:00:00
  Antecedent Dry Days ...... 5.0
  Report Time Step ......... 00:05:00
  Routing Time Step ........ 1.00 sec
  Variable Time Step ....... NO
  Maximum Trials ........... 8
  Number of Threads ........ 1
  Head Tolerance ........... 0.001000 m
  
  
  **************************        Volume        Volume
  Flow Routing Continuity        hectare-m      10^6 ltr
  **************************     ---------     ---------
  Dry Weather Inflow .......         1.049        10.487
  Wet Weather Inflow .......         0.000         0.000
  Groundwater Inflow .......         0.000         0.000
  RDII Inflow ..............         0.000         0.000
  External Inflow ..........         0.000         0.000
  External Outflow .........         0.760         7.601
  Flooding Loss ............         0.009         0.093
  Evaporation Loss .........         0.000         0.000
  Exfiltration Loss ........         0.000         0.000
  Initial Stored Volume ....         0.000         0.003
  Final Stored Volume ......         0.276         2.761
  Continuity Error (%) .....         0.338
  
  
  *************************
  Highest Continuity Errors
  *************************
  Node 3377 (17.08%)
  Node 3376 (-14.77%)
  Node MH188_28 (-12.58%)
  Node JCT-1328 (9.47%)
  Node JCT-1842 (8.78%)
  
  
  ********************************
  Highest Flow Instability Indexes
  ********************************
  Link CDT-129 (70)
  Link 71034 (68)
  Link CDT-199 (62)
  Link CDT-119 (52)
  Link CDT-121 (52)
  
  
  *********************************
  Most Frequent Nonconverging Nodes
  *********************************
  Node CLM081_OUTFALL (98.09%)
  Node CLM082_OUTFALL (98.09%)
  Node CLM083_OUTFALL (98.09%)
  Node CLM084_OUTFALL (98.09%)
  Node CLM085_OUTFALL (98.09%)
  
  
  *************************
  Routing Time Step Summary
  *************************
  Minimum Time Step           :     1.00 sec
  Average Time Step           :     1.00 sec
  Maximum Time Step           :     1.00 sec
  % of Time in Steady State   :     0.00
  Average Iterations per Step :     7.89
  % of Steps Not Converging   :    98.09
  
  
  ******************
  Node Depth Summary
  ******************
  
  ---------------------------------------------------------------------------------
                                 Average  Maximum  Maximum  Time of Max    Reported
                                   Depth    Depth      HGL   Occurrence   Max Depth
  Node                 Type       Meters   Meters   Meters  days hr:min      Meters
  ---------------------------------------------------------------------------------
  1000                 JUNCTION     0.01     0.01    22.31     0  01:07        0.01
  1001                 JUNCTION     0.01     0.01    28.80     0  01:26        0.01
  1002                 JUNCTION     0.00     0.00    34.65     0  00:36        0.00
  1003                 JUNCTION     0.01     0.01    28.95     0  01:05        0.01
  1004                 JUNCTION     0.00     0.00    37.50     0  00:27        0.00
  1005                 JUNCTION     0.01     0.01    12.66     0  02:07        0.01
  1006                 JUNCTION     0.01     0.01    11.63     0  01:30        0.01
  1007                 JUNCTION     0.01     0.01    14.42     0  01:27        0.01
  1008                 JUNCTION     0.00     0.00    16.82     0  00:34        0.00
  1009                 JUNCTION     0.02     0.02    17.22     0  02:44        0.02
  101                  JUNCTION     0.02     0.02     1.24     0  01:28        0.02
  1010                 JUNCTION     0.01     0.01    18.36     0  01:08        0.01
  1011                 JUNCTION     0.01     0.01    20.50     0  00:42        0.01
  1012                 JUNCTION     0.01     0.01    26.52     0  00:54        0.01
  1013                 JUNCTION     0.00     0.00    29.75     0  00:31        0.00
  1014                 JUNCTION     0.00     0.00    49.91     0  00:28        0.00
  1015                 JUNCTION     0.04     0.08    28.42     0  10:15        0.08
  1016                 JUNCTION     0.00     0.00    47.93     0  01:25        0.00
  1017                 JUNCTION     0.01     0.01    42.56     0  01:09        0.01
  1018                 JUNCTION     0.00     0.00    49.18     0  00:46        0.00
  1019                 JUNCTION     0.00     0.00    55.07     0  00:25        0.00
  1020                 JUNCTION     0.00     0.00    62.13     0  00:28        0.00
  1021                 JUNCTION     0.00     0.00    53.09     0  01:13        0.00
  1022                 JUNCTION     0.01     0.01    45.32     0  01:47        0.01
  1023                 JUNCTION     0.01     0.01    53.15     0  01:28        0.01
  1024                 JUNCTION     0.01     0.01    71.39     0  01:58        0.01
  1025                 JUNCTION     0.01     0.01    72.65     0  09:43        0.01
  1026                 JUNCTION     0.02     0.02    72.83     0  02:17        0.02
  1027                 JUNCTION     0.01     0.01    76.46     0  01:09        0.01
  1028                 JUNCTION     0.01     0.01    76.98     0  00:38        0.01
  1029                 JUNCTION     0.00     0.00    78.70     0  01:02        0.00
  1030                 JUNCTION     0.00     0.00    82.80     0  00:54        0.00
  1031                 JUNCTION     0.01     0.01    74.51     0  01:12        0.01
  1032                 JUNCTION     0.01     0.01    75.16     0  01:13        0.01
  1033                 JUNCTION     0.00     0.00    76.22     0  00:24        0.00
  1034                 JUNCTION     0.00     0.00     1.75     0  00:16        0.00
  1035                 JUNCTION     0.02     0.02     1.74     0  01:58        0.02
  1036                 JUNCTION     0.02     0.02     1.52     0  02:06        0.02
  1037                 JUNCTION     0.03     0.03     1.36     0  02:07        0.03
  1038                 JUNCTION     0.03     0.03     1.17     0  02:15        0.03
  1039                 JUNCTION     0.03     0.03     1.03     0  02:15        0.03
  1040                 JUNCTION     0.01     0.01     3.73     0  00:34        0.01
  1041                 JUNCTION     0.00     0.00     4.35     0  00:00        0.00
  1042                 JUNCTION     0.01     0.01     2.94     0  00:40        0.01
  1043                 JUNCTION     0.01     0.01     2.52     0  00:44        0.01
  1044                 JUNCTION     0.02     0.02     2.26     0  01:00        0.02
  1045                 JUNCTION     0.01     0.01     2.01     0  01:16        0.01
  1046                 JUNCTION     0.01     0.01     2.85     0  01:47        0.01
  1047                 JUNCTION     0.01     0.01     4.38     0  01:38        0.01
  1048                 JUNCTION     0.01     0.01     8.75     0  01:25        0.01
  1049                 JUNCTION     0.01     0.01     1.97     0  01:22        0.01
  1050                 JUNCTION     0.01     0.01     2.20     0  00:54        0.01
  1051                 JUNCTION     0.00     0.00     5.00     0  00:36        0.00
  1052                 JUNCTION     0.00     0.00     8.11     0  00:58        0.00
  1053                 JUNCTION     0.01     0.01     3.22     0  00:59        0.01
  1054                 JUNCTION     0.00     0.00     3.90     0  00:54        0.00
  1055                 JUNCTION     0.01     0.01     2.51     0  01:01        0.01
  1056                 JUNCTION     0.01     0.01     5.45     0  00:30        0.01
  1057                 JUNCTION     0.01     0.01     4.61     0  00:33        0.01
  1058                 JUNCTION     0.00     0.00     7.68     0  01:25        0.00
  1059                 JUNCTION     0.00     0.00    35.21     0  00:36        0.00
  1060                 JUNCTION     0.01     0.01    26.74     0  00:39        0.01
  1061                 JUNCTION     0.00     0.00    24.85     0  01:01        0.00
  1062                 JUNCTION     0.01     0.01    19.86     0  00:40        0.01
  1063                 JUNCTION     0.01     0.01    14.74     0  00:58        0.01
  1064                 JUNCTION     0.02     0.02     8.21     0  01:22        0.02
  1065                 JUNCTION     0.01     0.01    15.68     0  00:56        0.01
  1066                 JUNCTION     0.01     0.01    16.55     0  00:50        0.01
  1067                 JUNCTION     0.00     0.00    30.39     0  00:51        0.00
  1068                 JUNCTION     0.01     0.01    16.31     0  02:13        0.01
  1069                 JUNCTION     0.01     0.01    21.72     0  00:31        0.01
  1070                 JUNCTION     0.01     0.01    25.09     0  01:09        0.01
  1071                 JUNCTION     0.00     0.00    28.10     0  00:42        0.00
  1072                 JUNCTION     0.00     0.00    29.97     0  00:39        0.00
  1073                 JUNCTION     0.00     0.00    34.05     0  01:32        0.00
  1074                 JUNCTION     0.00     0.00    39.57     0  00:27        0.00
  1075                 JUNCTION     0.66     1.32     9.16     0  12:00        1.32
  1076                 JUNCTION     0.00     0.00    23.24     0  00:44        0.00
  1077                 JUNCTION     0.01     0.01    15.92     0  01:52        0.01
  1078                 JUNCTION     0.01     0.01    15.41     0  02:27        0.01
  1079                 JUNCTION     0.00     0.00    32.45     0  00:40        0.00
  1080                 JUNCTION     0.00     0.00    39.49     0  00:37        0.00
  1081                 JUNCTION     0.00     0.00    26.28     0  00:51        0.00
  1082                 JUNCTION     0.00     0.00    32.85     0  00:36        0.00
  1083                 JUNCTION     0.00     0.00    33.51     0  00:35        0.00
  1084                 JUNCTION     0.01     0.01    30.12     0  00:50        0.01
  1085                 JUNCTION     0.00     0.00    43.57     0  00:22        0.00
  1086                 JUNCTION     0.00     0.00    36.77     0  00:48        0.00
  1087                 JUNCTION     0.01     0.01    12.44     0  11:12        0.01
  1088                 JUNCTION     0.01     0.01    10.93     0  06:40        0.01
  1089                 JUNCTION     0.01     0.01    11.88     0  00:55        0.01
  109                  JUNCTION     0.00     0.00     1.20     0  00:00        0.00
  1090                 JUNCTION     0.01     0.01    11.65     0  00:52        0.01
  1091                 JUNCTION     0.00     0.00    13.97     0  00:37        0.00
  1092                 JUNCTION     0.02     0.02     7.58     0  07:43        0.02
  1093                 JUNCTION     0.01     0.01     8.74     0  03:15        0.01
  1094                 JUNCTION     0.01     0.01    10.20     0  03:15        0.01
  1095                 JUNCTION     0.02     0.02    10.82     0  03:08        0.02
  1096                 JUNCTION     0.04     0.04    11.52     0  02:49        0.04
  1097                 JUNCTION     0.00     0.00    14.53     0  00:43        0.00
  1098                 JUNCTION     0.00     0.00    15.73     0  00:41        0.00
  1099                 JUNCTION     0.03     0.03    13.96     0  02:49        0.03
  110                  JUNCTION     0.00     0.00     5.99     0  00:00        0.00
  1100                 JUNCTION     0.01     0.01    18.70     0  10:47        0.01
  1101                 JUNCTION     0.03     0.03    15.50     0  11:25        0.03
  1102                 JUNCTION     0.01     0.01    19.73     0  00:50        0.01
  1103                 JUNCTION     0.01     0.01    27.88     0  00:47        0.01
  1104                 JUNCTION     0.01     0.01    20.98     0  01:27        0.01
  1105                 JUNCTION     0.01     0.01    21.51     0  01:33        0.01
  1106                 JUNCTION     0.01     0.01    15.87     0  01:36        0.01
  1107                 JUNCTION     0.00     0.00    18.07     0  01:35        0.00
  1108                 JUNCTION     0.01     0.01    22.41     0  00:53        0.01
  1109                 JUNCTION     0.05     0.09     7.83     0  07:42        0.09
  1110                 JUNCTION     0.00     0.00    10.26     0  00:04        0.00
  1111                 JUNCTION     0.01     0.01    10.61     0  01:27        0.01
  1112                 JUNCTION     0.01     0.01    14.25     0  01:20        0.01
  1113                 JUNCTION     0.01     0.01    23.77     0  11:15        0.01
  1114                 JUNCTION     0.02     0.02    21.08     0  01:18        0.02
  1115                 JUNCTION     0.02     0.02    16.92     0  05:11        0.02
  1116                 JUNCTION     0.01     0.01    17.69     0  01:56        0.01
  1117                 JUNCTION     0.02     0.02     6.49     0  01:56        0.02
  1118                 JUNCTION     0.00     0.00    15.16     0  00:46        0.00
  1119                 JUNCTION     0.01     0.01    11.35     0  01:39        0.01
  1120                 JUNCTION     0.06     0.10     6.42     0  08:38        0.10
  1121                 JUNCTION     0.00     0.00    11.47     0  01:09        0.00
  1122                 JUNCTION     0.00     0.00    14.81     0  01:08        0.00
  1123                 JUNCTION     0.07     0.12     5.91     0  08:40        0.12
  1124                 JUNCTION     0.01     0.01     8.91     0  02:30        0.01
  1125                 JUNCTION     0.01     0.01    10.15     0  02:29        0.01
  1126                 JUNCTION     0.06     0.09     5.37     0  08:40        0.09
  1127                 JUNCTION     0.00     0.00    14.29     0  01:38        0.00
  1128                 JUNCTION     0.01     0.01    11.57     0  01:39        0.01
  1129                 JUNCTION     0.01     0.01     9.60     0  01:48        0.01
  113                  JUNCTION     0.00     0.00     2.36     0  00:00        0.00
  1130                 JUNCTION     0.02     0.02     7.86     0  05:40        0.02
  1131                 JUNCTION     0.02     0.02     9.13     0  02:10        0.02
  1132                 JUNCTION     0.02     0.02    10.40     0  02:02        0.02
  1133                 JUNCTION     0.02     0.02     6.77     0  03:08        0.02
  1134                 JUNCTION     0.08     0.11     4.67     0  08:42        0.11
  1135                 JUNCTION     0.10     0.13     4.30     0  08:45        0.13
  1136                 JUNCTION     0.07     0.07     8.08     0  05:33        0.07
  1137                 JUNCTION     0.05     0.05     8.98     0  02:02        0.05
  1138                 JUNCTION     0.06     0.06     7.83     0  07:54        0.06
  1139                 JUNCTION     0.11     0.13     3.93     0  02:30        0.13
  1140                 JUNCTION     0.13     0.15     3.78     0  02:31        0.15
  1141                 JUNCTION     0.01     0.01     7.36     0  01:11        0.01
  1142                 JUNCTION     0.01     0.01     8.11     0  01:11        0.01
  1143                 JUNCTION     0.01     0.01    13.24     0  01:10        0.01
  1144                 JUNCTION     0.01     0.01    12.82     0  02:01        0.01
  1145                 JUNCTION     0.01     0.01    15.04     0  02:01        0.01
  1146                 JUNCTION     0.00     0.00    24.13     0  00:57        0.00
  1147                 JUNCTION     0.01     0.01    24.49     0  00:53        0.01
  1148                 JUNCTION     0.01     0.01    18.21     0  00:58        0.01
  1149                 JUNCTION     0.05     0.05    10.21     0  07:12        0.05
  115                  JUNCTION     0.05     0.05     3.19     0  00:31        0.05
  1150                 JUNCTION     0.00     0.00    13.18     0  00:27        0.00
  1151                 JUNCTION     0.05     0.05    10.73     0  06:18        0.05
  1152                 JUNCTION     0.06     0.06    11.06     0  09:12        0.06
  1153                 JUNCTION     0.01     0.01    16.13     0  02:01        0.01
  1154                 JUNCTION     0.12     0.13     7.51     0  11:11        0.13
  1155                 JUNCTION     0.11     0.14     4.40     0  08:43        0.14
  1156                 JUNCTION     0.07     0.09     4.57     0  08:42        0.09
  1157                 JUNCTION     0.01     0.01     7.16     0  01:33        0.01
  1158                 JUNCTION     0.06     0.06     6.55     0  06:09        0.06
  1159                 JUNCTION     0.04     0.04     7.24     0  02:03        0.04
  116                  JUNCTION     0.05     0.05     3.34     0  00:34        0.05
  1160                 JUNCTION     0.08     0.08     7.46     0  11:48        0.08
  1161                 JUNCTION     0.01     0.01    13.63     0  02:39        0.01
  1162                 JUNCTION     0.01     0.01     9.77     0  02:05        0.01
  1163                 JUNCTION     0.01     0.01    10.07     0  01:52        0.01
  1164                 JUNCTION     0.01     0.01    11.09     0  02:09        0.01
  1165                 JUNCTION     0.00     0.00    38.74     0  00:25        0.00
  1166                 JUNCTION     0.01     0.01    10.30     0  01:34        0.01
  1167                 JUNCTION     0.01     0.01     7.33     0  01:37        0.01
  1168                 JUNCTION     0.01     0.01     7.10     0  01:37        0.01
  1169                 JUNCTION     0.03     0.03     6.73     0  03:08        0.03
  117                  JUNCTION     0.05     0.05     3.60     0  00:29        0.05
  1170                 JUNCTION     0.02     0.02     8.28     0  09:14        0.02
  1171                 JUNCTION     0.10     0.10     6.26     0  03:32        0.10
  1172                 JUNCTION     0.06     0.06     6.52     0  02:50        0.06
  1173                 JUNCTION     0.03     0.03     6.49     0  00:25        0.03
  1174                 JUNCTION     0.04     0.04     6.53     0  04:09        0.04
  1175                 JUNCTION     0.01     0.01    16.37     0  11:50        0.01
  1176                 JUNCTION     0.00     0.00    20.46     0  00:59        0.00
  1177                 JUNCTION     0.01     0.01    20.95     0  00:57        0.01
  1178                 JUNCTION     0.01     0.01    26.02     0  00:26        0.01
  1179                 JUNCTION     0.00     0.00    30.60     0  00:26        0.00
  118                  JUNCTION     0.05     0.05     3.74     0  00:17        0.05
  1180                 JUNCTION     0.01     0.01    24.97     0  00:39        0.01
  1181                 JUNCTION     0.00     0.00    37.29     0  00:22        0.00
  1182                 JUNCTION     0.00     0.00    34.70     0  00:47        0.00
  1183                 JUNCTION     0.00     0.00    31.17     0  00:48        0.00
  1184                 JUNCTION     0.01     0.01    22.38     0  01:08        0.01
  1185                 JUNCTION     0.01     0.01    21.52     0  02:29        0.01
  1186                 JUNCTION     0.01     0.01    16.71     0  01:40        0.01
  1187                 JUNCTION     0.01     0.01    16.20     0  01:12        0.01
  1188                 JUNCTION     0.02     0.02    15.18     0  08:53        0.02
  1189                 JUNCTION     0.01     0.02    16.27     0  02:17        0.02
  1190                 JUNCTION     0.00     0.00    33.69     0  00:26        0.00
  1191                 JUNCTION     0.00     0.00    38.12     0  00:23        0.00
  1192                 JUNCTION     0.01     0.01    22.92     0  00:57        0.01
  1193                 JUNCTION     0.00     0.00    34.97     0  00:32        0.00
  1194                 JUNCTION     0.00     0.00    13.21     0  01:28        0.00
  1195                 JUNCTION     0.04     0.04     7.91     0  02:40        0.04
  1196                 JUNCTION     0.06     0.06     8.16     0  06:34        0.06
  1197                 JUNCTION     0.04     0.04     8.76     0  00:21        0.04
  1198                 JUNCTION     0.03     0.03     9.73     0  04:00        0.03
  1199                 JUNCTION     0.01     0.01    15.08     0  01:37        0.01
  1200                 JUNCTION     0.03     0.03     8.83     0  11:54        0.03
  1201                 JUNCTION     0.02     0.02     9.36     0  02:30        0.02
  1202                 JUNCTION     0.02     0.02     9.71     0  02:13        0.02
  1203                 JUNCTION     0.00     0.00    84.60     0  01:02        0.00
  1204                 JUNCTION     0.00     0.00    85.42     0  00:56        0.00
  1205                 JUNCTION     0.03     0.03     4.44     0  07:51        0.03
  1206                 JUNCTION     0.01     0.02     7.23     0  01:26        0.02
  1207                 JUNCTION     0.01     0.01    12.59     0  01:47        0.01
  1208                 JUNCTION     0.00     0.00    13.53     0  00:49        0.00
  1209                 JUNCTION     0.02     0.02    13.06     0  01:21        0.02
  1210                 JUNCTION     0.01     0.01    14.56     0  00:31        0.01
  1211                 JUNCTION     0.01     0.01    17.18     0  01:11        0.01
  1212                 JUNCTION     0.02     0.02    17.41     0  02:37        0.02
  1213                 JUNCTION     0.02     0.02     7.34     0  04:18        0.02
  1214                 JUNCTION     0.00     0.00    14.19     0  00:55        0.00
  1215                 JUNCTION     0.03     0.03     7.76     0  03:34        0.03
  1216                 JUNCTION     0.02     0.02    11.43     0  04:46        0.02
  1217                 JUNCTION     0.01     0.01    50.26     0  02:51        0.01
  1218                 JUNCTION     0.01     0.01    61.94     0  08:01        0.01
  1219                 JUNCTION     0.00     0.00    75.48     0  03:07        0.00
  1220                 JUNCTION     0.00     0.00    78.49     0  00:45        0.00
  1221                 JUNCTION     0.00     0.00    72.71     0  02:03        0.00
  1222                 JUNCTION     0.01     0.01    64.32     0  05:35        0.01
  1223                 JUNCTION     0.01     0.01    65.78     0  02:10        0.01
  1224                 JUNCTION     0.01     0.01    74.09     0  01:02        0.01
  1225                 JUNCTION     0.00     0.00    76.21     0  00:57        0.00
  1226                 JUNCTION     0.00     0.00    79.14     0  00:45        0.00
  1227                 JUNCTION     0.00     0.00    81.38     0  00:40        0.00
  1228                 JUNCTION     0.01     0.01    39.28     0  01:12        0.01
  1229                 JUNCTION     0.01     0.01    58.20     0  01:29        0.01
  1230                 JUNCTION     0.03     0.03     4.54     0  10:48        0.03
  1231                 JUNCTION     0.02     0.02     7.16     0  01:52        0.02
  1232                 JUNCTION     0.02     0.02     8.65     0  05:45        0.02
  1233                 JUNCTION     0.01     0.01    10.26     0  03:09        0.01
  1234                 JUNCTION     0.03     0.03     9.17     0  02:56        0.03
  1235                 JUNCTION     0.01     0.01    18.77     0  09:35        0.01
  1236                 JUNCTION     0.01     0.01    22.94     0  01:17        0.01
  1237                 JUNCTION     0.02     0.02    10.99     0  03:27        0.02
  1238                 JUNCTION     0.01     0.01    15.35     0  00:57        0.01
  1239                 JUNCTION     0.01     0.01    24.61     0  05:12        0.01
  1240                 JUNCTION     0.01     0.01    29.04     0  07:04        0.01
  1241                 JUNCTION     0.01     0.01    29.61     0  08:29        0.01
  1242                 JUNCTION     0.01     0.01    37.08     0  05:49        0.01
  1243                 JUNCTION     0.01     0.01    39.11     0  08:02        0.01
  1244                 JUNCTION     0.01     0.01    43.45     0  01:58        0.01
  1245                 JUNCTION     0.01     0.01    44.35     0  04:07        0.01
  1246                 JUNCTION     0.01     0.01    44.64     0  05:57        0.01
  1247                 JUNCTION     0.01     0.01    20.45     0  02:49        0.01
  1248                 JUNCTION     0.02     0.02    17.45     0  01:49        0.02
  1249                 JUNCTION     0.01     0.01    22.47     0  01:03        0.01
  1250                 JUNCTION     0.01     0.01    24.83     0  01:25        0.01
  1251                 JUNCTION     0.01     0.01    36.10     0  01:08        0.01
  1252                 JUNCTION     0.01     0.01    36.36     0  01:05        0.01
  1253                 JUNCTION     0.01     0.01    36.78     0  00:34        0.01
  1254                 JUNCTION     0.01     0.01    38.68     0  00:34        0.01
  1255                 JUNCTION     0.00     0.00    49.14     0  00:20        0.00
  1256                 JUNCTION     0.00     0.00    44.60     0  00:45        0.00
  1257                 JUNCTION     0.01     0.01    44.92     0  00:30        0.01
  1258                 JUNCTION     0.01     0.01    22.99     0  01:16        0.01
  1259                 JUNCTION     0.01     0.01    25.00     0  00:56        0.01
  1260                 JUNCTION     0.00     0.00    36.35     0  00:54        0.00
  1261                 JUNCTION     0.00     0.00    39.69     0  00:27        0.00
  1262                 JUNCTION     0.00     0.00    53.72     0  00:46        0.00
  1263                 JUNCTION     0.00     0.00    41.62     0  00:33        0.00
  1264                 JUNCTION     0.02     0.02    11.18     0  01:50        0.02
  1265                 JUNCTION     0.01     0.01    18.41     0  00:48        0.01
  1266                 JUNCTION     0.00     0.00    22.14     0  00:46        0.00
  1267                 JUNCTION     0.03     0.03     3.17     0  02:39        0.03
  1268                 JUNCTION     0.07     0.08     2.93     0  10:44        0.08
  1269                 JUNCTION     0.11     0.12     0.63     0  08:54        0.12
  1270                 JUNCTION     0.17     0.18     0.78     0  08:53        0.18
  1271                 JUNCTION     0.17     0.18     0.88     0  08:52        0.18
  1272                 JUNCTION     0.16     0.17     0.94     0  08:51        0.17
  1273                 JUNCTION     0.16     0.18     1.24     0  08:51        0.18
  1274                 JUNCTION     0.16     0.18     1.49     0  08:48        0.18
  1275                 JUNCTION     0.16     0.17     1.70     0  08:47        0.17
  1276                 JUNCTION     0.11     0.13     2.04     0  08:44        0.13
  1277                 JUNCTION     0.13     0.14     2.24     0  10:46        0.14
  1278                 JUNCTION     0.08     0.08     1.34     0  03:38        0.08
  1279                 JUNCTION     0.07     0.08     1.56     0  03:38        0.08
  1280                 JUNCTION     0.08     0.08     1.82     0  03:38        0.08
  1281                 JUNCTION     0.07     0.07     2.13     0  03:37        0.07
  1282                 JUNCTION     0.03     0.04     2.26     0  03:35        0.04
  1283                 JUNCTION     0.02     0.05     2.30     0  02:28        0.05
  1284                 JUNCTION     0.05     0.11     1.57     0  11:29        0.11
  1285                 JUNCTION     0.05     0.10     1.61     0  10:19        0.10
  1286                 JUNCTION     0.04     0.09     1.70     0  10:18        0.09
  1287                 JUNCTION     0.04     0.04    -0.82     0  03:44        0.04
  1288                 JUNCTION     0.01     0.01     4.67     0  01:36        0.01
  1289                 JUNCTION     0.01     0.01     2.12     0  01:37        0.01
  1290                 JUNCTION     0.01     0.01     5.01     0  06:06        0.01
  1291                 JUNCTION     0.01     0.01     7.47     0  01:12        0.01
  1292                 JUNCTION     0.01     0.01     3.22     0  01:52        0.01
  1293                 JUNCTION     0.02     0.02     2.78     0  02:00        0.02
  1294                 JUNCTION     0.01     0.01     3.61     0  01:49        0.01
  1295                 JUNCTION     0.01     0.01     4.68     0  01:41        0.01
  1296                 JUNCTION     0.02     0.08     5.92     0  10:15        0.08
  1297                 JUNCTION     0.00     0.00     7.61     0  00:36        0.00
  1298                 JUNCTION     0.00     0.00     9.30     0  01:29        0.00
  1299                 JUNCTION     0.01     0.01     7.61     0  03:09        0.01
  1300                 JUNCTION     0.01     0.01     6.96     0  01:42        0.01
  1301                 JUNCTION     0.00     0.00     9.70     0  01:40        0.00
  1302                 JUNCTION     0.01     0.01     8.06     0  03:09        0.01
  1303                 JUNCTION     0.00     0.00    10.69     0  01:07        0.00
  1304                 JUNCTION     0.00     0.00     6.56     0  00:40        0.00
  1305                 JUNCTION     0.01     0.01     5.32     0  01:08        0.01
  1306                 JUNCTION     0.00     0.00    10.20     0  00:24        0.00
  1307                 JUNCTION     0.07     0.24     1.98     0  10:18        0.24
  1308                 JUNCTION     0.01     0.01     3.93     0  01:58        0.01
  1309                 JUNCTION     0.00     0.00     5.89     0  02:24        0.00
  1310                 JUNCTION     0.01     0.01     4.85     0  02:12        0.01
  1311                 JUNCTION     0.02     0.02     1.22     0  02:27        0.02
  1312                 JUNCTION     0.00     0.00    12.41     0  01:14        0.00
  1313                 JUNCTION     0.01     0.01     1.78     0  02:25        0.01
  1314                 JUNCTION     0.01     0.01     2.20     0  02:22        0.01
  1315                 JUNCTION     0.00     0.00     3.97     0  01:00        0.00
  1316                 JUNCTION     0.00     0.00     6.16     0  00:57        0.00
  1317                 JUNCTION     0.02     0.02     2.57     0  02:02        0.02
  1318                 JUNCTION     0.02     0.02     2.44     0  02:03        0.02
  1319                 JUNCTION     0.01     0.01     2.01     0  02:18        0.01
  1320                 JUNCTION     0.01     0.01     1.81     0  02:20        0.01
  1321                 JUNCTION     0.01     0.01     4.99     0  00:11        0.01
  1322                 JUNCTION     0.01     0.01     9.18     0  01:42        0.01
  1323                 JUNCTION     0.00     0.00    10.94     0  01:42        0.00
  1324                 JUNCTION     0.02     0.02     8.72     0  01:48        0.02
  1325                 JUNCTION     0.01     0.01     8.00     0  02:52        0.01
  1326                 JUNCTION     0.03     0.03     3.98     0  03:12        0.03
  1327                 JUNCTION     0.01     0.01     9.87     0  02:08        0.01
  1328                 JUNCTION     0.01     0.01    12.06     0  00:53        0.01
  1329                 JUNCTION     0.00     0.00     9.25     0  01:51        0.00
  1330                 JUNCTION     0.00     0.00     4.93     0  01:01        0.00
  1331                 JUNCTION     0.01     0.01     5.36     0  01:34        0.01
  1332                 JUNCTION     0.01     0.01     6.17     0  01:51        0.01
  1333                 JUNCTION     0.01     0.01     5.02     0  02:14        0.01
  1334                 JUNCTION     0.03     0.03    -0.10     0  02:38        0.03
  1335                 JUNCTION     0.02     0.02     0.51     0  02:34        0.02
  1336                 JUNCTION     0.01     0.01     3.87     0  02:14        0.01
  1337                 JUNCTION     0.02     0.02     1.04     0  02:34        0.02
  1338                 JUNCTION     0.02     0.02     1.49     0  02:31        0.02
  1339                 JUNCTION     0.02     0.02     4.20     0  01:05        0.02
  1341                 JUNCTION     0.01     0.01     0.37     0  03:40        0.01
  1342                 JUNCTION     0.01     0.01     0.97     0  02:50        0.01
  1343                 JUNCTION     0.00     0.00     1.85     0  00:00        0.00
  1344                 JUNCTION     0.00     0.00     1.98     0  00:00        0.00
  1345                 JUNCTION     0.00     0.00     1.53     0  00:00        0.00
  1346                 JUNCTION     0.04     0.04     0.77     0  02:17        0.04
  1347                 JUNCTION     0.03     0.04     0.66     0  02:18        0.04
  1348                 JUNCTION     0.04     0.04     0.39     0  02:18        0.04
  1349                 JUNCTION     0.04     0.04     0.22     0  03:02        0.04
  1350                 JUNCTION     0.05     0.05     0.13     0  03:02        0.05
  1351                 JUNCTION     0.04     0.04     0.03     0  01:38        0.04
  1352                 JUNCTION     0.00     0.00     2.28     0  00:31        0.00
  1353                 JUNCTION     0.01     0.01     1.07     0  03:02        0.01
  1354                 JUNCTION     0.01     0.01     3.43     0  01:08        0.01
  1355                 JUNCTION     0.01     0.01     2.02     0  01:12        0.01
  1356                 JUNCTION     0.02     0.02     1.67     0  02:03        0.02
  1357                 JUNCTION     0.02     0.02     1.44     0  02:03        0.02
  1358                 JUNCTION     0.11     0.13    -0.05     0  05:34        0.13
  1359                 JUNCTION     0.02     0.02     1.51     0  02:42        0.02
  1360                 JUNCTION     0.02     0.02     1.22     0  02:47        0.02
  1361                 JUNCTION     0.04     0.05     3.57     0  03:02        0.05
  1362                 JUNCTION     0.05     0.05     3.30     0  03:03        0.05
  1363                 JUNCTION     0.00     0.00    17.69     0  00:29        0.00
  1364                 JUNCTION     0.00     0.00    11.52     0  00:46        0.00
  1365                 JUNCTION     0.03     0.03     4.95     0  03:49        0.03
  1366                 JUNCTION     0.03     0.03     4.69     0  02:54        0.03
  1367                 JUNCTION     0.05     0.05     4.15     0  04:00        0.05
  1368                 JUNCTION     0.05     0.05     4.06     0  08:26        0.05
  1369                 JUNCTION     0.01     0.01     5.65     0  00:58        0.01
  1370                 JUNCTION     0.02     0.02     3.99     0  08:17        0.02
  1371                 JUNCTION     0.02     0.02     4.36     0  02:54        0.02
  1372                 JUNCTION     0.03     0.03     5.73     0  06:21        0.03
  1373                 JUNCTION     0.03     0.03     5.42     0  07:38        0.03
  1374                 JUNCTION     0.01     0.01     9.04     0  01:13        0.01
  1375                 JUNCTION     0.00     0.00    13.75     0  00:54        0.00
  1376                 JUNCTION     0.00     0.00    13.80     0  00:58        0.00
  1377                 JUNCTION     0.01     0.01    11.00     0  01:50        0.01
  1378                 JUNCTION     0.01     0.01    16.09     0  02:26        0.01
  1379                 JUNCTION     0.01     0.01    19.02     0  03:02        0.01
  1380                 JUNCTION     0.00     0.00    21.81     0  01:13        0.00
  1381                 JUNCTION     0.01     0.01    11.64     0  01:50        0.01
  1382                 JUNCTION     0.01     0.01     8.91     0  01:30        0.01
  1383                 JUNCTION     0.03     0.09     8.26     0  01:37        0.09
  1384                 JUNCTION     0.02     0.10    10.65     0  09:15        0.10
  1385                 JUNCTION     0.01     0.01     7.08     0  02:11        0.01
  1386                 JUNCTION     0.00     0.00     9.91     0  00:26        0.00
  1387                 JUNCTION     0.01     0.01     9.52     0  05:55        0.01
  1388                 JUNCTION     0.05     0.12     6.50     0  04:38        0.12
  1389                 JUNCTION     0.02     0.02     6.14     0  03:01        0.02
  1390                 JUNCTION     0.02     0.02     5.75     0  01:55        0.02
  1391                 JUNCTION     0.02     0.02     5.51     0  01:43        0.02
  1392                 JUNCTION     0.02     0.02     5.12     0  02:40        0.02
  1393                 JUNCTION     0.02     0.02     4.79     0  03:00        0.02
  1394                 JUNCTION     0.08     0.09     4.57     0  03:00        0.09
  1395                 JUNCTION     0.03     0.11     9.78     0  11:56        0.11
  1396                 JUNCTION     0.10     0.11     4.40     0  02:43        0.11
  1397                 JUNCTION     0.00     0.00    27.22     0  00:31        0.00
  1398                 JUNCTION     0.00     0.00    17.78     0  00:50        0.00
  1399                 JUNCTION     0.00     0.00    23.89     0  00:27        0.00
  1400                 JUNCTION     0.01     0.01    15.03     0  03:21        0.01
  1401                 JUNCTION     0.00     0.00    21.34     0  01:06        0.00
  1402                 JUNCTION     0.01     0.01    13.99     0  02:24        0.01
  1403                 JUNCTION     0.06     0.10     5.57     0  07:39        0.10
  1404                 JUNCTION     0.00     0.00    63.98     0  00:32        0.00
  1405                 JUNCTION     0.00     0.00    59.38     0  00:37        0.00
  1406                 JUNCTION     0.00     0.00    57.47     0  00:43        0.00
  1407                 JUNCTION     0.01     0.01    55.39     0  00:37        0.01
  1408                 JUNCTION     0.01     0.01    77.36     0  02:37        0.01
  1409                 JUNCTION     0.01     0.01    77.66     0  02:15        0.01
  1410                 JUNCTION     0.01     0.01    77.85     0  02:58        0.01
  1411                 JUNCTION     0.01     0.01    78.16     0  02:28        0.01
  1412                 JUNCTION     0.01     0.01    12.67     0  01:19        0.01
  1413                 JUNCTION     0.01     0.01    11.16     0  01:43        0.01
  1414                 JUNCTION     0.00     0.00    14.29     0  00:37        0.00
  1415                 JUNCTION     0.01     0.01     9.65     0  02:33        0.01
  1416                 JUNCTION     0.04     0.04     7.13     0  02:20        0.04
  1417                 JUNCTION     0.04     0.04     6.73     0  02:24        0.04
  1418                 JUNCTION     0.01     0.01     9.15     0  02:43        0.01
  1419                 JUNCTION     0.01     0.01    55.14     0  00:51        0.01
  1420                 JUNCTION     0.02     0.02    54.92     0  11:19        0.02
  1421                 JUNCTION     0.01     0.01    61.76     0  02:48        0.01
  1422                 JUNCTION     0.02     0.02    54.76     0  05:19        0.02
  1424                 JUNCTION     0.02     0.02    54.14     0  02:45        0.02
  1425                 JUNCTION     0.01     0.01    75.86     0  02:04        0.01
  1426                 JUNCTION     0.01     0.01    77.16     0  05:12        0.01
  1427                 JUNCTION     0.00     0.00    82.57     0  00:25        0.00
  1428                 JUNCTION     0.00     0.00    84.55     0  00:37        0.00
  1429                 JUNCTION     0.00     0.00    88.95     0  00:26        0.00
  1430                 JUNCTION     0.01     0.03    44.97     0  10:14        0.03
  1431                 JUNCTION     0.00     0.00    47.76     0  00:32        0.00
  1432                 JUNCTION     0.01     0.01    42.47     0  00:35        0.01
  1433                 JUNCTION     0.01     0.01    41.99     0  00:45        0.01
  1434                 JUNCTION     0.01     0.01    41.31     0  02:04        0.01
  1435                 JUNCTION     0.01     0.01    31.21     0  02:13        0.01
  1436                 JUNCTION     0.02     0.02    31.44     0  02:49        0.02
  1437                 JUNCTION     0.00     0.00    28.86     0  01:18        0.00
  1438                 JUNCTION     0.01     0.01    28.87     0  00:41        0.01
  1439                 JUNCTION     0.00     0.00    38.97     0  01:52        0.00
  1440                 JUNCTION     0.00     0.00    48.70     0  00:27        0.00
  1441                 JUNCTION     0.00     0.00    59.22     0  00:28        0.00
  1442                 JUNCTION     0.02     0.02    39.46     0  01:12        0.02
  1443                 JUNCTION     0.02     0.02    40.92     0  01:15        0.02
  1444                 JUNCTION     0.01     0.01    45.22     0  11:42        0.01
  1445                 JUNCTION     0.01     0.01    48.70     0  05:39        0.01
  1446                 JUNCTION     0.01     0.01    53.88     0  11:34        0.01
  1447                 JUNCTION     0.01     0.01    54.97     0  02:33        0.01
  1448                 JUNCTION     0.01     0.01    57.24     0  04:30        0.01
  1449                 JUNCTION     0.01     0.01    60.64     0  09:06        0.01
  1450                 JUNCTION     0.00     0.00    47.99     0  00:28        0.00
  1451                 JUNCTION     0.04     0.04    10.49     0  05:31        0.04
  1452                 JUNCTION     0.01     0.01    11.17     0  02:11        0.01
  1453                 JUNCTION     0.01     0.02    11.99     0  01:56        0.02
  1454                 JUNCTION     0.04     0.04    10.58     0  09:06        0.04
  1455                 JUNCTION     0.00     0.00    14.44     0  00:58        0.00
  1456                 JUNCTION     0.01     0.01    12.24     0  01:55        0.01
  1457                 JUNCTION     0.04     0.04    10.87     0  03:21        0.04
  1458                 JUNCTION     0.01     0.01    14.51     0  00:57        0.01
  1459                 JUNCTION     0.01     0.01    18.71     0  00:57        0.01
  1460                 JUNCTION     0.03     0.03     5.07     0  02:15        0.03
  1461                 JUNCTION     0.01     0.01     7.36     0  01:56        0.01
  1462                 JUNCTION     0.01     0.01     5.85     0  02:08        0.01
  1463                 JUNCTION     0.00     0.00    17.81     0  00:37        0.00
  1464                 JUNCTION     0.01     0.01     8.68     0  05:46        0.01
  1465                 JUNCTION     0.00     0.00    15.58     0  00:33        0.00
  1466                 JUNCTION     0.01     0.01    10.22     0  00:36        0.01
  1467                 JUNCTION     0.00     0.00    19.65     0  00:24        0.00
  1468                 JUNCTION     0.00     0.00    26.50     0  00:22        0.00
  1469                 JUNCTION     0.03     0.03     6.87     0  02:23        0.03
  1470                 JUNCTION     0.01     0.01    19.35     0  00:35        0.01
  1471                 JUNCTION     0.01     0.01    20.61     0  00:08        0.01
  1472                 JUNCTION     0.01     0.01    14.78     0  00:50        0.01
  1473                 JUNCTION     0.01     0.01    13.58     0  01:03        0.01
  1474                 JUNCTION     0.02     0.02     7.62     0  02:27        0.02
  1475                 JUNCTION     0.03     0.03     7.22     0  02:19        0.03
  1476                 JUNCTION     0.03     0.03     6.51     0  02:41        0.03
  1477                 JUNCTION     0.03     0.03     6.23     0  04:48        0.03
  1478                 JUNCTION     0.00     0.00     9.45     0  00:35        0.00
  1479                 JUNCTION     0.02     0.02     8.05     0  08:51        0.02
  1480                 JUNCTION     0.01     0.01     9.54     0  00:45        0.01
  1481                 JUNCTION     0.00     0.00    13.65     0  00:45        0.00
  1482                 JUNCTION     0.02     0.02     8.25     0  02:24        0.02
  1483                 JUNCTION     0.02     0.02     8.59     0  03:18        0.02
  1484                 JUNCTION     0.01     0.01     7.16     0  01:13        0.01
  1485                 JUNCTION     0.01     0.01     7.77     0  00:26        0.01
  1486                 JUNCTION     0.00     0.00    10.92     0  00:22        0.00
  1487                 JUNCTION     0.01     0.01    21.35     0  00:55        0.01
  1488                 JUNCTION     0.00     0.00    22.64     0  00:33        0.00
  1489                 JUNCTION     0.04     0.04    11.10     0  08:51        0.04
  1490                 JUNCTION     0.00     0.00    27.17     0  00:34        0.00
  1491                 JUNCTION     0.00     0.00    26.50     0  00:37        0.00
  1492                 JUNCTION     0.00     0.00    24.46     0  01:39        0.00
  1493                 JUNCTION     0.01     0.01    22.91     0  00:47        0.01
  1494                 JUNCTION     0.01     0.01    12.35     0  01:30        0.01
  1495                 JUNCTION     0.00     0.00    15.00     0  01:30        0.00
  1496                 JUNCTION     0.01     0.01    12.23     0  01:45        0.01
  1497                 JUNCTION     0.01     0.01    12.06     0  01:47        0.01
  1498                 JUNCTION     0.04     0.04    11.39     0  02:26        0.04
  1499                 JUNCTION     0.00     0.00    11.51     0  00:00        0.00
  1500                 JUNCTION     0.00     0.00    12.22     0  00:00        0.00
  1501                 JUNCTION     0.02     0.02    12.33     0  03:40        0.02
  1502                 JUNCTION     0.03     0.03    12.63     0  08:25        0.03
  1503                 JUNCTION     0.00     0.00    14.32     0  00:55        0.00
  1504                 JUNCTION     0.03     0.03    13.70     0  04:25        0.03
  1505                 JUNCTION     0.02     0.02    13.80     0  08:49        0.02
  1506                 JUNCTION     0.02     0.02    15.39     0  06:33        0.02
  1507                 JUNCTION     0.01     0.01    16.83     0  09:49        0.01
  1508                 JUNCTION     0.02     0.02    17.51     0  04:41        0.02
  1509                 JUNCTION     0.01     0.01    19.35     0  03:53        0.01
  1510                 JUNCTION     0.01     0.01    21.41     0  02:27        0.01
  1511                 JUNCTION     0.01     0.01    23.23     0  01:36        0.01
  1512                 JUNCTION     0.01     0.01    24.94     0  01:35        0.01
  1513                 JUNCTION     0.01     0.01    42.47     0  02:17        0.01
  1514                 JUNCTION     0.01     0.01    39.47     0  06:28        0.01
  1515                 JUNCTION     0.00     0.00    54.27     0  00:27        0.00
  1516                 JUNCTION     0.01     0.01    52.06     0  05:32        0.01
  1517                 JUNCTION     0.00     0.00    38.65     0  00:25        0.00
  1518                 JUNCTION     0.00     0.00    29.74     0  01:07        0.00
  1519                 JUNCTION     0.00     0.00    33.14     0  00:39        0.00
  1520                 JUNCTION     0.07     0.10    21.94     0  10:20        0.10
  1521                 JUNCTION     0.00     0.00    92.32     0  00:52        0.00
  1522                 JUNCTION     0.01     0.01    38.96     0  09:15        0.01
  1523                 JUNCTION     0.01     0.01    36.15     0  07:24        0.01
  1524                 JUNCTION     0.01     0.01    34.72     0  07:43        0.01
  1525                 JUNCTION     0.01     0.01    32.54     0  02:43        0.01
  1526                 JUNCTION     0.03     0.04    28.12     0  10:15        0.04
  1527                 JUNCTION     0.02     0.04    26.41     0  10:16        0.04
  1528                 JUNCTION     0.05     0.08    24.13     0  10:16        0.08
  1529                 JUNCTION     0.02     0.02    25.86     0  10:50        0.02
  1530                 JUNCTION     0.00     0.00    44.84     0  00:26        0.00
  1531                 JUNCTION     0.00     0.00    43.37     0  00:29        0.00
  1532                 JUNCTION     0.01     0.01    39.99     0  00:48        0.01
  1533                 JUNCTION     0.01     0.01    39.64     0  02:23        0.01
  1534                 JUNCTION     0.01     0.01    37.76     0  05:28        0.01
  1535                 JUNCTION     0.01     0.01    29.19     0  01:34        0.01
  1536                 JUNCTION     0.01     0.01    29.11     0  00:37        0.01
  1537                 JUNCTION     0.00     0.00    33.59     0  00:36        0.00
  1538                 JUNCTION     0.01     0.01    53.05     0  10:18        0.01
  1539                 JUNCTION     0.06     0.09    23.82     0  10:17        0.09
  1540                 JUNCTION     0.06     0.09    22.05     0  10:18        0.09
  1541                 JUNCTION     0.04     0.06    23.58     0  10:17        0.06
  1542                 JUNCTION     0.02     0.07    45.50     0  10:14        0.07
  1543                 JUNCTION     0.02     0.06    45.69     0  10:11        0.06
  1544                 JUNCTION     0.01     0.06    45.98     0  10:10        0.06
  1545                 JUNCTION     0.01     0.03    52.10     0  10:09        0.03
  1546                 JUNCTION     0.01     0.03    57.84     0  10:09        0.03
  1547                 JUNCTION     0.01     0.01    58.57     0  00:28        0.01
  1548                 JUNCTION     0.00     0.00    82.13     0  02:45        0.00
  1549                 JUNCTION     0.01     0.01    78.43     0  07:13        0.01
  1550                 JUNCTION     0.01     0.01    77.46     0  08:18        0.01
  1551                 JUNCTION     0.01     0.01    73.36     0  06:56        0.01
  1552                 JUNCTION     0.01     0.01    74.32     0  09:53        0.01
  1553                 JUNCTION     0.01     0.01    69.19     0  05:14        0.01
  1554                 JUNCTION     0.00     0.00    81.30     0  01:22        0.00
  1555                 JUNCTION     0.00     0.00    82.88     0  00:47        0.00
  1556                 JUNCTION     0.00     0.00    83.26     0  00:47        0.00
  1557                 JUNCTION     0.01     0.01    60.13     0  02:50        0.01
  1558                 JUNCTION     0.01     0.01    59.91     0  01:08        0.01
  1559                 JUNCTION     0.01     0.01    55.12     0  01:10        0.01
  1560                 JUNCTION     0.01     0.01    58.18     0  01:09        0.01
  1561                 JUNCTION     0.01     0.01    52.82     0  02:29        0.01
  1562                 JUNCTION     0.01     0.01    54.27     0  07:56        0.01
  1563                 JUNCTION     0.01     0.01    54.66     0  01:34        0.01
  1564                 JUNCTION     0.01     0.01    55.25     0  01:08        0.01
  1565                 JUNCTION     0.00     0.00    59.74     0  01:05        0.00
  1566                 JUNCTION     0.01     0.01    60.11     0  00:59        0.01
  1567                 JUNCTION     0.04     0.06    20.58     0  08:17        0.06
  1568                 JUNCTION     0.06     0.09    21.62     0  08:16        0.09
  1569                 JUNCTION     0.00     0.03    61.33     0  10:08        0.03
  157                  JUNCTION     0.02     0.05     4.75     0  01:26        0.05
  1570                 JUNCTION     0.02     0.02    22.55     0  01:18        0.02
  1571                 JUNCTION     0.02     0.02    24.27     0  07:34        0.02
  1572                 JUNCTION     0.02     0.02    18.47     0  06:46        0.02
  1573                 JUNCTION     0.01     0.01    20.00     0  03:16        0.01
  1574                 JUNCTION     0.01     0.01    21.90     0  04:24        0.01
  1575                 JUNCTION     0.00     0.00    33.72     0  00:34        0.00
  1576                 JUNCTION     0.01     0.01    37.09     0  01:45        0.01
  1577                 JUNCTION     0.07     0.09    13.54     0  06:14        0.09
  1578                 JUNCTION     0.01     0.01    24.69     0  00:53        0.01
  1579                 JUNCTION     0.08     0.13    13.24     0  10:29        0.11
  158                  JUNCTION     0.00     0.00     4.75     0  00:00        0.00
  1580                 JUNCTION     0.01     0.01    21.67     0  03:30        0.01
  1581                 JUNCTION     0.00     0.00    29.69     0  01:05        0.00
  1582                 JUNCTION     0.00     0.00    40.26     0  01:01        0.00
  1583                 JUNCTION     0.00     0.00    35.11     0  02:21        0.00
  1584                 JUNCTION     0.00     0.00    40.62     0  00:45        0.00
  1585                 JUNCTION     0.03     0.03    31.89     0  08:14        0.03
  1586                 JUNCTION     0.01     0.01    37.67     0  10:58        0.01
  1587                 JUNCTION     0.01     0.01    38.23     0  00:46        0.01
  1588                 JUNCTION     0.00     0.00    43.21     0  00:28        0.00
  1589                 JUNCTION     0.01     0.01    46.30     0  11:09        0.01
  159                  JUNCTION     0.00     0.00     4.80     0  00:00        0.00
  1590                 JUNCTION     0.01     0.01    31.50     0  02:34        0.01
  1591                 JUNCTION     0.03     0.03    26.83     0  03:43        0.03
  1592                 JUNCTION     0.02     0.02    26.50     0  03:48        0.02
  1593                 JUNCTION     0.02     0.02    20.58     0  02:07        0.02
  1594                 JUNCTION     0.01     0.01    22.01     0  00:25        0.01
  1595                 JUNCTION     0.01     0.01    30.75     0  02:41        0.01
  1596                 JUNCTION     0.01     0.01    29.77     0  01:31        0.01
  1597                 JUNCTION     0.01     0.01    27.01     0  02:09        0.01
  1598                 JUNCTION     0.01     0.01    60.53     0  02:46        0.01
  1599                 JUNCTION     0.00     0.00    61.64     0  00:45        0.00
  1600                 JUNCTION     0.00     0.00    72.88     0  00:43        0.00
  1601                 JUNCTION     0.01     0.01    71.12     0  00:47        0.01
  1602                 JUNCTION     0.01     0.01    70.84     0  06:17        0.01
  1603                 JUNCTION     0.00     0.00    80.89     0  00:23        0.00
  1604                 JUNCTION     0.01     0.01    67.53     0  01:59        0.01
  1605                 JUNCTION     0.00     0.00    81.61     0  00:26        0.00
  1606                 JUNCTION     0.09     0.12    13.02     0  10:29        0.12
  1607                 JUNCTION     0.01     0.01    23.37     0  01:11        0.01
  1608                 JUNCTION     0.00     0.00    35.79     0  00:45        0.00
  1609                 JUNCTION     0.08     0.11    12.89     0  10:30        0.11
  1610                 JUNCTION     0.00     0.00    42.18     0  00:56        0.00
  1611                 JUNCTION     0.00     0.00    52.82     0  00:44        0.00
  1612                 JUNCTION     0.01     0.01    16.46     0  00:50        0.01
  1613                 JUNCTION     0.01     0.01    20.60     0  00:45        0.01
  1614                 JUNCTION     0.11     0.14    12.77     0  10:32        0.13
  1615                 JUNCTION     0.01     0.01    24.62     0  00:18        0.01
  1616                 JUNCTION     0.10     0.12    12.31     0  10:33        0.12
  1617                 JUNCTION     0.09     0.11    10.37     0  10:34        0.11
  1618                 JUNCTION     0.02     0.02    15.48     0  03:36        0.02
  1619                 JUNCTION     0.01     0.01    22.65     0  02:51        0.01
  1620                 JUNCTION     0.01     0.01    26.69     0  00:59        0.01
  1621                 JUNCTION     0.01     0.01    28.70     0  00:25        0.01
  1622                 JUNCTION     0.01     0.01    15.85     0  01:02        0.01
  1623                 JUNCTION     0.01     0.01    23.02     0  01:57        0.01
  1624                 JUNCTION     0.00     0.00    26.78     0  00:22        0.00
  1625                 JUNCTION     0.00     0.00    46.78     0  00:24        0.00
  1626                 JUNCTION     0.01     0.01    42.18     0  02:19        0.01
  1627                 JUNCTION     0.01     0.01    41.94     0  03:54        0.01
  1628                 JUNCTION     0.08     0.09    10.26     0  10:35        0.09
  1629                 JUNCTION     0.06     0.09    13.84     0  08:19        0.09
  1630                 JUNCTION     0.03     0.04    17.27     0  08:17        0.04
  1631                 JUNCTION     0.03     0.04    19.28     0  08:17        0.04
  1632                 JUNCTION     0.00     0.00    19.33     0  00:41        0.00
  1633                 JUNCTION     0.00     0.00    23.85     0  00:43        0.00
  1634                 JUNCTION     0.07     0.08     3.37     0  10:43        0.08
  1635                 JUNCTION     0.07     0.08     3.84     0  10:42        0.08
  1636                 JUNCTION     0.07     0.08     4.44     0  10:41        0.08
  1637                 JUNCTION     0.07     0.08     5.03     0  10:40        0.08
  1638                 JUNCTION     0.06     0.07     6.07     0  10:39        0.07
  1639                 JUNCTION     0.04     0.05     9.02     0  10:38        0.05
  1640                 JUNCTION     0.10     0.11     9.75     0  10:37        0.11
  1641                 JUNCTION     0.01     0.01     4.97     0  01:05        0.01
  1642                 JUNCTION     0.00     0.00     5.20     0  00:00        0.00
  1643                 JUNCTION     0.01     0.01     4.36     0  01:10        0.01
  1644                 JUNCTION     0.01     0.01     4.07     0  01:56        0.01
  1645                 JUNCTION     0.01     0.01     3.72     0  01:56        0.01
  1646                 JUNCTION     0.01     0.01     3.62     0  01:57        0.01
  1647                 JUNCTION     0.01     0.02     3.47     0  00:22        0.02
  1648                 JUNCTION     0.07     0.07     3.39     0  09:44        0.07
  1649                 JUNCTION     0.01     0.01     4.41     0  02:13        0.01
  1650                 JUNCTION     0.06     0.06     3.89     0  02:51        0.06
  1651                 JUNCTION     0.01     0.01     5.34     0  00:52        0.01
  1652                 JUNCTION     0.01     0.01     4.45     0  00:47        0.01
  1653                 JUNCTION     0.01     0.01     4.87     0  00:51        0.01
  1654                 JUNCTION     0.07     0.07     4.06     0  03:18        0.07
  1655                 JUNCTION     0.06     0.06     4.27     0  04:43        0.06
  1656                 JUNCTION     0.01     0.01     4.53     0  00:33        0.01
  1657                 JUNCTION     0.01     0.01     4.66     0  00:35        0.01
  1658                 JUNCTION     0.06     0.07     3.99     0  04:44        0.07
  1659                 JUNCTION     0.04     0.04     4.46     0  04:43        0.04
  1660                 JUNCTION     0.04     0.04     4.97     0  05:12        0.04
  1661                 JUNCTION     0.01     0.01     5.48     0  02:27        0.01
  1662                 JUNCTION     0.01     0.01     5.53     0  01:32        0.01
  1663                 JUNCTION     0.04     0.04     5.68     0  02:54        0.04
  1664                 JUNCTION     0.02     0.02     5.24     0  01:28        0.02
  1665                 JUNCTION     0.01     0.01     5.85     0  01:28        0.01
  1666                 JUNCTION     0.02     0.02     5.76     0  06:21        0.02
  1667                 JUNCTION     0.02     0.02     6.17     0  02:13        0.02
  1668                 JUNCTION     0.01     0.01     6.45     0  00:56        0.01
  1669                 JUNCTION     0.05     0.05     3.01     0  11:41        0.05
  1670                 JUNCTION     0.05     0.05     2.62     0  03:16        0.05
  1671                 JUNCTION     0.04     0.05     2.76     0  03:16        0.05
  1672                 JUNCTION     0.05     0.05     2.93     0  03:15        0.05
  1673                 JUNCTION     0.06     0.06     3.23     0  03:15        0.06
  1674                 JUNCTION     0.01     0.01     5.71     0  00:08        0.01
  1675                 JUNCTION     0.01     0.01     4.76     0  02:13        0.01
  1676                 JUNCTION     0.00     0.00     6.42     0  01:19        0.00
  1677                 JUNCTION     0.00     0.00     6.56     0  00:45        0.00
  1678                 JUNCTION     0.01     0.01     6.23     0  01:26        0.01
  1679                 JUNCTION     0.04     0.04     6.05     0  02:45        0.04
  1680                 JUNCTION     0.04     0.04     6.21     0  06:56        0.04
  1681                 JUNCTION     0.03     0.03     6.87     0  02:42        0.03
  1682                 JUNCTION     0.01     0.01     6.52     0  01:28        0.01
  1683                 JUNCTION     0.01     0.01     7.00     0  01:18        0.01
  1684                 JUNCTION     0.04     0.04     7.02     0  08:15        0.04
  1685                 JUNCTION     0.05     0.05     7.19     0  08:19        0.05
  1686                 JUNCTION     0.04     0.04     7.31     0  08:29        0.04
  1687                 JUNCTION     0.05     0.05     7.47     0  08:00        0.05
  1688                 JUNCTION     0.03     0.03     7.64     0  08:18        0.03
  1689                 JUNCTION     0.03     0.04     8.37     0  06:56        0.04
  1690                 JUNCTION     0.01     0.01     7.29     0  02:07        0.01
  1691                 JUNCTION     0.01     0.01     9.49     0  02:00        0.01
  1692                 JUNCTION     0.01     0.01     8.04     0  02:01        0.01
  1693                 JUNCTION     0.01     0.01     7.87     0  01:19        0.01
  1694                 JUNCTION     0.02     0.02     6.99     0  02:06        0.02
  1695                 JUNCTION     0.02     0.02     7.59     0  02:03        0.02
  1696                 JUNCTION     0.01     0.01     9.17     0  01:08        0.01
  1697                 JUNCTION     0.01     0.01     9.36     0  01:47        0.01
  1698                 JUNCTION     0.01     0.01    10.93     0  01:33        0.01
  1699                 JUNCTION     0.00     0.00    19.05     0  00:38        0.00
  1700                 JUNCTION     0.01     0.01    11.32     0  01:34        0.01
  1701                 JUNCTION     0.01     0.01    11.52     0  01:03        0.01
  1702                 JUNCTION     0.00     0.00    18.36     0  00:41        0.00
  1703                 JUNCTION     0.01     0.01    11.64     0  01:31        0.01
  1704                 JUNCTION     0.00     0.00    13.07     0  01:30        0.00
  1705                 JUNCTION     0.01     0.01    18.81     0  00:40        0.01
  1706                 JUNCTION     0.04     0.04     8.61     0  08:36        0.04
  1707                 JUNCTION     0.05     0.05     8.82     0  08:18        0.05
  1708                 JUNCTION     0.00     0.00    14.47     0  00:44        0.00
  1709                 JUNCTION     0.01     0.01    12.47     0  01:14        0.01
  1710                 JUNCTION     0.01     0.01    12.59     0  00:45        0.01
  1711                 JUNCTION     0.04     0.05     9.11     0  06:55        0.05
  1712                 JUNCTION     0.00     0.00    13.62     0  00:39        0.00
  1713                 JUNCTION     0.03     0.03    10.03     0  02:52        0.03
  1714                 JUNCTION     0.03     0.04    10.22     0  05:52        0.04
  1715                 JUNCTION     0.04     0.04    10.38     0  04:35        0.04
  1716                 JUNCTION     0.01     0.01    26.61     0  00:51        0.01
  1717                 JUNCTION     0.00     0.00    18.40     0  01:06        0.00
  1718                 JUNCTION     0.01     0.01    16.96     0  01:29        0.01
  1719                 JUNCTION     0.01     0.01    15.67     0  01:22        0.01
  1720                 JUNCTION     0.02     0.02    15.89     0  01:24        0.02
  1721                 JUNCTION     0.01     0.01    17.42     0  01:22        0.01
  1722                 JUNCTION     0.01     0.01    18.63     0  01:21        0.01
  1723                 JUNCTION     0.01     0.01    18.97     0  00:33        0.01
  1724                 JUNCTION     0.00     0.00    20.85     0  01:15        0.00
  1725                 JUNCTION     0.00     0.00    36.83     0  00:47        0.00
  1726                 JUNCTION     0.00     0.00    12.76     0  00:00        0.00
  1727                 JUNCTION     0.01     0.01     5.37     0  01:07        0.01
  1728                 JUNCTION     0.01     0.01     5.07     0  01:50        0.01
  1729                 JUNCTION     0.02     0.02     4.56     0  02:05        0.02
  1730                 JUNCTION     0.01     0.01    18.76     0  00:33        0.01
  1731                 JUNCTION     0.00     0.00    18.53     0  00:46        0.00
  1732                 JUNCTION     0.01     0.01    13.51     0  00:47        0.01
  1733                 JUNCTION     0.01     0.01     7.35     0  00:52        0.01
  1734                 JUNCTION     0.01     0.01     5.86     0  01:00        0.01
  1735                 JUNCTION     0.00     0.00    16.64     0  00:47        0.00
  1736                 JUNCTION     0.01     0.01    11.85     0  00:50        0.01
  1737                 JUNCTION     0.01     0.01     8.11     0  00:51        0.01
  1738                 JUNCTION     0.02     0.02     2.98     0  01:53        0.02
  1739                 JUNCTION     0.01     0.01    33.85     0  09:33        0.01
  1740                 JUNCTION     0.00     0.00    39.76     0  00:45        0.00
  1741                 JUNCTION     0.01     0.01    36.26     0  03:11        0.01
  1742                 JUNCTION     0.01     0.01    40.62     0  01:14        0.01
  1743                 JUNCTION     0.00     0.00    45.56     0  00:30        0.00
  1744                 JUNCTION     0.00     0.00    47.96     0  00:00        0.00
  1745                 JUNCTION     0.00     0.00    48.00     0  00:48        0.00
  1746                 JUNCTION     0.00     0.00    56.11     0  00:31        0.00
  1747                 JUNCTION     0.01     0.01    11.74     0  01:05        0.01
  1748                 JUNCTION     0.01     0.01     8.23     0  01:10        0.01
  1749                 JUNCTION     0.02     0.02     8.06     0  02:18        0.02
  1750                 JUNCTION     0.01     0.01     9.01     0  01:16        0.01
  1751                 JUNCTION     0.01     0.01     1.00     0  03:10        0.01
  1752                 JUNCTION     0.01     0.01     0.24     0  03:16        0.01
  1753                 JUNCTION     0.01     0.01     0.11     0  02:37        0.01
  1754                 JUNCTION     0.01     0.01     0.54     0  02:28        0.01
  1755                 JUNCTION     0.01     0.01     1.34     0  02:24        0.01
  1756                 JUNCTION     0.01     0.01     1.81     0  02:14        0.01
  1757                 JUNCTION     0.01     0.01     0.84     0  03:02        0.01
  1758                 JUNCTION     0.01     0.01     1.41     0  03:01        0.01
  1759                 JUNCTION     0.01     0.01     1.34     0  02:52        0.01
  1760                 JUNCTION     0.01     0.01     0.72     0  03:03        0.01
  1761                 JUNCTION     0.01     0.01     1.98     0  00:52        0.01
  1762                 JUNCTION     0.01     0.01     1.81     0  02:34        0.01
  1763                 JUNCTION     0.01     0.01     1.22     0  02:38        0.01
  1764                 JUNCTION     0.01     0.01     0.73     0  02:46        0.01
  1765                 JUNCTION     0.01     0.01     1.28     0  02:26        0.01
  1766                 JUNCTION     0.01     0.01     0.74     0  02:29        0.01
  1767                 JUNCTION     0.01     0.01     0.58     0  02:30        0.01
  1768                 JUNCTION     0.01     0.01     1.01     0  02:22        0.01
  1769                 JUNCTION     0.01     0.01     0.06     0  02:35        0.01
  1770                 JUNCTION     0.01     0.01     1.60     0  02:13        0.01
  1771                 JUNCTION     0.01     0.01     0.28     0  03:13        0.01
  1772                 JUNCTION     0.01     0.01     1.36     0  03:10        0.01
  1773                 JUNCTION     0.01     0.01     0.81     0  03:12        0.01
  1774                 JUNCTION     0.01     0.01     1.06     0  01:44        0.01
  1775                 JUNCTION     0.01     0.01     1.02     0  01:10        0.01
  1776                 JUNCTION     0.01     0.01     1.10     0  02:55        0.01
  1777                 JUNCTION     0.01     0.01     1.39     0  02:47        0.01
  1778                 JUNCTION     0.01     0.01     0.83     0  02:50        0.01
  1779                 JUNCTION     0.01     0.01     1.60     0  01:09        0.01
  1780                 JUNCTION     0.01     0.01     1.92     0  03:18        0.01
  1781                 JUNCTION     0.01     0.01     1.29     0  03:26        0.01
  1782                 JUNCTION     0.01     0.01     1.24     0  01:20        0.01
  1783                 JUNCTION     0.01     0.01     1.56     0  01:13        0.01
  1784                 JUNCTION     0.01     0.01     1.59     0  02:58        0.01
  1785                 JUNCTION     0.01     0.01     1.01     0  03:04        0.01
  1786                 JUNCTION     0.01     0.01     1.61     0  01:47        0.01
  1787                 JUNCTION     0.01     0.01     1.28     0  02:17        0.01
  1788                 JUNCTION     0.02     0.02     0.55     0  02:27        0.02
  1789                 JUNCTION     0.01     0.01     1.53     0  02:17        0.01
  1790                 JUNCTION     0.01     0.01     0.76     0  02:52        0.01
  1791                 JUNCTION     0.01     0.01     1.33     0  02:50        0.01
  1792                 JUNCTION     0.01     0.01     1.68     0  02:47        0.01
  1793                 JUNCTION     0.01     0.01     1.86     0  01:46        0.01
  1794                 JUNCTION     0.01     0.01     1.30     0  02:23        0.01
  1795                 JUNCTION     0.01     0.01     1.78     0  02:24        0.01
  1796                 JUNCTION     0.01     0.01     2.03     0  02:19        0.01
  1797                 JUNCTION     0.01     0.01     0.98     0  02:24        0.01
  1798                 JUNCTION     0.00     0.00     3.63     0  00:00        0.00
  1799                 JUNCTION     0.02     0.02     4.28     0  00:19        0.02
  1800                 JUNCTION     0.04     0.04     4.79     0  00:09        0.04
  1801                 JUNCTION     0.02     0.02     4.12     0  01:23        0.02
  1802                 JUNCTION     0.03     0.03     3.32     0  03:14        0.03
  1803                 JUNCTION     0.01     0.01     4.87     0  03:51        0.01
  1804                 JUNCTION     0.01     0.01     4.68     0  02:35        0.01
  1805                 JUNCTION     0.01     0.01     6.92     0  02:27        0.01
  1806                 JUNCTION     0.00     0.00    10.45     0  00:42        0.00
  1807                 JUNCTION     0.01     0.01     5.35     0  02:07        0.01
  1808                 JUNCTION     0.00     0.00     9.42     0  00:55        0.00
  1809                 JUNCTION     0.01     0.01     5.99     0  00:55        0.01
  1810                 JUNCTION     0.01     0.01     5.08     0  00:56        0.01
  1811                 JUNCTION     0.02     0.02     4.06     0  02:58        0.02
  1812                 JUNCTION     0.01     0.01     0.50     0  00:35        0.01
  1813                 JUNCTION     0.01     0.01     3.09     0  01:14        0.01
  1814                 JUNCTION     0.02     0.02     0.73     0  06:13        0.02
  1815                 JUNCTION     0.00     0.00     3.84     0  00:27        0.00
  1816                 JUNCTION     0.19     0.20     3.56     0  01:40        0.20
  1817                 JUNCTION     0.02     0.02     3.07     0  03:07        0.02
  1818                 JUNCTION     0.01     0.01     5.92     0  01:38        0.01
  1819                 JUNCTION     0.01     0.01     2.06     0  01:48        0.01
  1820                 JUNCTION     0.02     0.02     1.78     0  03:21        0.02
  1821                 JUNCTION     0.01     0.01     2.71     0  03:16        0.01
  1822                 JUNCTION     0.01     0.01     2.13     0  02:50        0.01
  1823                 JUNCTION     0.01     0.01     1.61     0  02:51        0.01
  1824                 JUNCTION     0.03     0.03     1.33     0  03:23        0.03
  1825                 JUNCTION     0.03     0.03     1.49     0  03:21        0.03
  1826                 JUNCTION     0.01     0.01     2.25     0  02:26        0.01
  1827                 JUNCTION     0.01     0.01     1.67     0  02:30        0.01
  1828                 JUNCTION     0.01     0.01     2.97     0  03:12        0.01
  1829                 JUNCTION     0.01     0.01     2.27     0  03:31        0.01
  1830                 JUNCTION     0.01     0.01     3.92     0  00:42        0.01
  1831                 JUNCTION     0.02     0.02     3.77     0  01:35        0.02
  1832                 JUNCTION     0.02     0.02     3.25     0  01:37        0.02
  1833                 JUNCTION     0.01     0.01     2.48     0  01:12        0.01
  1834                 JUNCTION     0.01     0.01     2.23     0  02:16        0.01
  1835                 JUNCTION     0.01     0.01     2.44     0  01:33        0.01
  1836                 JUNCTION     0.01     0.01     2.37     0  03:08        0.01
  1837                 JUNCTION     0.01     0.01     1.99     0  03:10        0.01
  1838                 JUNCTION     0.01     0.01     2.31     0  03:40        0.01
  1839                 JUNCTION     0.01     0.01     1.94     0  02:26        0.01
  1840                 JUNCTION     0.01     0.01     2.38     0  02:19        0.01
  1841                 JUNCTION     0.01     0.01     2.19     0  02:44        0.01
  1842                 JUNCTION     0.01     0.01     2.53     0  01:40        0.01
  1843                 JUNCTION     0.01     0.01     2.92     0  02:30        0.01
  1844                 JUNCTION     0.01     0.01     3.39     0  02:27        0.01
  1845                 JUNCTION     0.01     0.01     2.79     0  03:03        0.01
  1846                 JUNCTION     0.01     0.01     1.98     0  02:40        0.01
  1847                 JUNCTION     0.01     0.01     2.44     0  02:27        0.01
  1848                 JUNCTION     0.01     0.01     2.88     0  01:47        0.01
  1849                 JUNCTION     0.01     0.01     2.55     0  02:49        0.01
  1850                 JUNCTION     0.00     0.00     2.79     0  01:22        0.00
  1851                 JUNCTION     0.01     0.01     1.28     0  03:02        0.01
  1852                 JUNCTION     0.01     0.01     1.77     0  02:51        0.01
  1853                 JUNCTION     0.01     0.01     2.22     0  03:17        0.01
  1854                 JUNCTION     0.01     0.01     1.55     0  03:23        0.01
  1855                 JUNCTION     0.02     0.02     1.02     0  04:26        0.02
  1856                 JUNCTION     0.01     0.01     1.91     0  02:22        0.01
  1857                 JUNCTION     0.01     0.01     1.46     0  02:34        0.01
  1858                 JUNCTION     0.00     0.00     9.33     0  01:25        0.00
  1859                 JUNCTION     0.01     0.01     5.50     0  01:25        0.01
  186                  JUNCTION     0.00     0.00     1.90     0  00:28        0.00
  1860                 JUNCTION     0.01     0.01     3.60     0  02:09        0.01
  1861                 JUNCTION     0.02     0.02     2.22     0  04:07        0.02
  1862                 JUNCTION     0.00     0.00    17.95     0  01:56        0.00
  1863                 JUNCTION     0.00     0.00    11.38     0  01:19        0.00
  1864                 JUNCTION     0.01     0.01     6.62     0  03:34        0.01
  1865                 JUNCTION     0.01     0.01     8.84     0  01:57        0.01
  1866                 JUNCTION     0.01     0.01     4.49     0  03:31        0.01
  1867                 JUNCTION     0.01     0.01     5.19     0  03:22        0.01
  1868                 JUNCTION     0.02     0.02     2.41     0  03:30        0.02
  1869                 JUNCTION     0.01     0.01     3.72     0  00:11        0.01
  1870                 JUNCTION     0.01     0.01     3.56     0  00:24        0.01
  1871                 JUNCTION     0.01     0.01     3.86     0  02:48        0.01
  1872                 JUNCTION     0.01     0.01     4.44     0  02:29        0.01
  1873                 JUNCTION     0.00     0.00    11.64     0  00:36        0.00
  1874                 JUNCTION     0.01     0.01     5.78     0  02:01        0.01
[...]
  71134                      11.62     11.74     11.64      0.01         5.35
  73999                       6.50     11.61      6.51      6.49         0.02
  74475                       9.52      9.52      9.77      7.37         0.03
  74874                       8.83      8.83      8.85      0.01         0.01
  74875                       8.83      8.83      9.04      0.01         0.01
  74876                       8.85      8.85      9.04      0.01         0.01
  74877                       8.85      8.85      8.89      0.01         0.01
  74878                       8.88      8.88      8.89      0.01         0.01
  74879                       8.88      8.88      8.92      7.39         0.06
  74880                       8.95      8.95      9.01      6.60         6.97
  74881                       8.95      8.95      9.19      7.69         0.66
  74882                       9.19      9.20      9.19      7.10         7.32
  74883                       9.20      9.20      9.41      7.23         0.01
  74884                       9.37      9.37      9.41      7.00         7.29
  74885                       9.37      9.37      9.61      7.26         0.01
  74886                       9.60      9.60      9.61      6.86         7.23
  74887                       9.47      9.47      9.60      0.04         0.18
  74888                       9.47      9.47      9.78      8.25         0.60
  74889                       9.55      9.55      9.70      0.02         0.33
  74890                       8.73      8.79      9.51      7.28         7.54
  74891                       9.47      9.51      9.55      7.76         7.67
  74892                       8.91      9.04      8.99      9.26         0.62
  74893                       8.91      8.91     10.11      0.01         0.01
  74895                       9.87      9.87     10.00      0.01         0.01
  74905                       8.72      9.05      8.79      9.43         8.13
  CDT-101                    10.74     10.74     10.83      2.53         0.14
  CDT-103                    10.59     10.59     10.74      0.01         0.01
  CDT-105                     0.01      0.01     10.74      2.54         0.01
  CDT-109                    10.75     10.77     11.17      3.19         3.15
  CDT-111                    10.77     10.77     11.29      0.02         0.01
  CDT-113                    11.17     11.17     11.25      3.12         3.12
  CDT-115                    10.78     10.78     11.25      0.07         0.01
  CDT-117                    10.77     10.78     11.04      3.20         3.18
  CDT-119                    10.59     10.60     10.60      3.14         3.17
  CDT-121                    10.60     10.60     11.09      0.01         0.01
  CDT-123                    11.04     11.04     11.09      0.01         0.01
  CDT-125                     0.01      0.01     10.60      3.17         0.01
  CDT-127                     0.01      0.01     10.65      9.90         0.01
  CDT-129                    10.66     10.66     11.22      0.01         0.01
  CDT-133                    11.06     11.06     11.17      4.06         0.16
  CDT-135                    11.01     11.01     11.06      0.01         0.01
  CDT-137                     6.88      6.88     11.01      0.01         0.01
  CDT-139                     6.85      6.86     10.92      0.01         0.07
  CDT-141                    10.92     10.92     10.94      0.01         0.01
  CDT-143                    10.81     10.81     10.96      0.01         0.01
  CDT-145                     0.01      0.01     10.81      0.01         0.01
  CDT-147                     1.16      1.16     11.19      3.17         0.01
  CDT-149                    11.18     11.18     11.20      0.01         0.01
  CDT-151                     4.15      4.15     11.43      4.15         0.01
  CDT-153                    10.27     10.31     10.55      4.06         0.64
  CDT-155                    10.05     10.05     10.06      0.01         0.14
  CDT-157                    10.18     10.18     10.18      4.01         4.05
  CDT-159                    10.16     10.16     10.18      0.01         0.01
  CDT-161                    10.12     10.12     10.16      3.67         3.85
  CDT-163                     0.01      1.22      0.01      2.12         0.01
  CDT-165                     1.96      1.97     11.18      0.01         0.01
  CDT-167                     8.18      8.33     10.05      6.82         7.15
  CDT-169                     4.11     11.28      4.14      4.26         0.02
  CDT-171                    11.39     11.39     11.41      4.03         4.08
  CDT-173                    11.40     11.40     11.41      4.20         0.17
  CDT-175                    11.33     11.33     11.40      4.05         0.02
  CDT-177                    11.27     11.28     11.39      4.15         4.10
  CDT-179                     6.61      6.64     11.68      6.91         0.05
  CDT-19                     10.41     10.41     10.87      0.01         0.01
  CDT-199                    11.61     11.62     11.61      6.45         0.03
  CDT-201                    11.57     11.57     11.62      0.01         0.01
  CDT-203                    11.53     11.55     11.57      6.44         0.01
  CDT-205                     6.42      6.42     11.58      6.44         0.01
  CDT-207                     8.34      8.34     11.08      0.01         0.01
  CDT-209                    11.12     11.12     11.14      0.01         0.09
  CDT-211                    11.07     11.08     11.12      0.01         0.09
  CDT-213                    11.13     11.13     11.16      0.01         0.06
  CDT-215                    11.15     11.16     11.22      0.01         0.09
  CDT-217                    10.05     10.05     11.00      0.01         0.01
  CDT-219                    10.83     10.83     11.04      0.01         0.01
  CDT-221                    10.63     10.63     10.84      0.01         0.01
  CDT-223                    10.53     10.59     10.63      6.72         0.28
  CDT-225                     0.01      0.01      7.57      6.26         0.01
  CDT-227                     7.57      7.57     10.59      0.01         0.02
  CDT-23                      8.81      8.81      8.82      0.01         0.01
  CDT-235                     9.92      9.92     10.00      0.01         0.01
  CDT-237                     9.78      9.78      9.87      6.89         0.01
  CDT-239                     8.92      8.92      9.01      6.80         0.01
  CDT-25                      8.81      8.81     12.00      0.01         0.01
  CDT-27                      8.81      8.81      8.81      0.01         0.01
  CDT-271                    11.01     11.01     11.15      0.30         0.06
  CDT-273                    10.30     10.31     10.90      4.58         0.73
  CDT-275                    10.85     10.90     11.01      4.68         0.87
  CDT-279                     9.69      9.69      9.70      0.17         0.01
  CDT-281                     0.16      0.16      9.69      0.16         0.01
  CDT-283                    11.17     11.18     11.18      2.21         2.01
  CDT-285                    11.17     11.17     11.29      2.25         1.98
  CDT-287                    11.28     11.29     11.30      2.26         1.94
  CDT-289                    11.29     11.30     11.29      2.25         2.08
  CDT-291                    11.29     11.29     11.29      2.24         1.98
  CDT-293                    11.16     11.18     11.17      2.27         2.01
  CDT-295                    11.26     11.32     11.44      1.75         0.07
  CDT-297                    11.02     11.06     11.32      1.73         0.05
  CDT-299                     0.02      0.02     11.18      1.61         0.01
  CDT-303                    11.69     11.69     11.74      0.01         0.07
  CDT-305                    11.68     11.68     11.69      6.74         2.40
  CDT-307                    11.60     11.60     11.68      0.01         0.01
  CDT-309                    11.60     11.60     11.60      8.06         2.66
  CDT-311                    11.45     11.45     11.51      0.57         0.74
  CDT-313                    11.51     11.51     11.60      0.01         0.01
  CDT-315                    11.40     11.40     11.45      0.01         0.01
  CDT-317                     6.16      6.16     11.40      0.01         0.01
  CDT-319                     3.09      3.15      6.16      6.16         0.07
  CDT-321                     0.01      0.01      3.15      4.35         0.01
  CDT-329                     9.33      9.33      9.89      4.39         4.76
  CDT-331                     9.89      9.89      9.97      0.01         0.01
  CDT-333                     9.85      9.85      9.97      0.01         0.01
  CDT-335                     9.77      9.77      9.85      5.10         0.01
  CDT-337                     9.51      9.52      9.60      4.73         5.08
  CDT-339                     9.60      9.60      9.60      5.43         5.66
  CDT-341                     9.40      9.40      9.60      5.92         0.01
  CDT-343                     9.39      9.40      9.39      5.60         5.81
  CDT-345                     9.21      9.21      9.39      5.93         0.01
  CDT-347                     9.17      9.21      9.17      5.78         5.92
  CDT-349                     9.05      9.05      9.17      6.80         0.01
  CDT-35                      9.66      9.66     10.04      0.01         0.03
  CDT-351                     9.05      9.05      9.07      4.84         5.17
  CDT-353                     9.03      9.03      9.07      0.01         0.01
  CDT-355                     9.00      9.00      9.03      6.55         0.01
  CDT-357                     9.00      9.00      9.07      3.45         3.87
  CDT-359                     8.96      8.96      9.07      0.01         0.01
  CDT-361                     8.96      8.96      9.27      2.81         3.21
  CDT-363                     8.86      8.86      9.27      0.01         0.01
  CDT-365                     8.86      8.86      8.93      2.35         2.80
  CDT-367                    11.63     11.68     11.65      7.27         0.60
  CDT-37                      4.05     10.81      4.09      1.08         3.04
  CDT-373                    11.60     11.73     11.65      7.23         0.47
  CDT-377                    11.39     11.70     11.40      7.19         0.16
  CDT-387                     9.34      9.34      9.35      3.99         1.45
  CDT-393                     9.69      9.69      9.92      0.01         0.14
  CDT-397                     9.32      9.34      9.33      6.91         6.86
  CDT-41                      5.54      5.55      9.81      2.69         2.64
  CDT-43                      1.02      1.02      9.80      1.02         0.01
  CDT-45                      0.20      9.70      0.83      0.18         0.01
  CDT-47                      2.02      2.02     11.41      2.04         0.01
  CDT-49                      0.01      0.01      8.15      0.01         0.01
  CDT-51                      0.01      0.01     10.70      0.01         0.01
  CDT-53                     10.29     10.51     10.38      4.35         6.02
  CDT-55                     10.55     10.85     10.61      2.70         7.99
  CDT-57                      9.85      9.88     11.47      2.15         2.11
  CDT-59                      3.46      3.46     11.29      0.14         0.12
  CDT-63                     10.55     10.55     10.66      9.99        10.02
  CDT-65                      0.01      0.01     10.79      0.01         0.01
  CDT-67                      4.46     11.17      4.47      4.42         0.07
  CDT-69                     11.19     11.20     11.20      0.01         8.00
  CDT-71                      3.95      3.95     10.56      3.92         3.91
  CDT-73                     11.40     11.43     11.40      4.17         7.25
  CDT-77                      2.10      2.10      8.97      0.01         0.01
  CDT-79                     10.40     10.40     10.54      4.26         4.58
  CDT-83                      0.01      0.01     10.20      0.01         0.01
  CDT-85                     10.14     10.14     10.20      0.01         0.01
  CDT-87                      0.01      0.01     10.31      0.01         0.01
  CDT-89                      0.01      0.01     10.31      0.01         0.01
  CDT-93                      0.01      0.01      5.70      0.01         0.01
  CDT-99                     10.83     10.83     10.85      0.01         0.01
  RM188_01                    1.73     11.44      1.73      1.72         0.02
  STP-COOLUM_CHANNEL1         0.01      0.01      0.01      5.16         0.01
  
  
  ***************
  Pumping Summary
  ***************
  
  ---------------------------------------------------------------------------------------------------------
                                                  Min       Avg       Max     Total     Power    % Time Off
                        Percent   Number of      Flow      Flow      Flow    Volume     Usage    Pump Curve
  Pump                 Utilized   Start-Ups       LPS       LPS       LPS  10^6 ltr     Kw-hr    Low   High
  ---------------------------------------------------------------------------------------------------------
  CLM081_DUTY             24.17          21      0.00     89.86    115.00     0.938     39.64    0.0    9.0
  CLM081_STANDBY           0.00           0      0.00      0.00      0.00     0.000      0.00    0.0    0.0
  CLM082_DUTY             35.85         100      0.00    152.00    152.00     2.354    523.81    0.0   37.5
  CLM082_DUTY2             0.00           0      0.00      0.00      0.00     0.000      0.00    0.0    0.0
  CLM082_STANDBY           0.00           0      0.00      0.00      0.00     0.000      0.00    0.0    0.0
  CLM083_DUTY              8.61           9      0.00     11.75     40.00     0.044      2.14    0.0    0.6
  CLM083_STANDBY           0.00           0      0.00      0.00      0.00     0.000      0.00    0.0    0.0
  CLM084_DUTY              1.67          17      0.00     12.06     40.00     0.009      0.29    0.0    0.7
  CLM084_STANDBY           0.00           0      0.00      0.00      0.00     0.000      0.00    0.0    0.0
  CLM085_DUTY             20.38         302      0.00     54.44     84.51     0.479     19.67    0.0    0.0
  CLM085_STANDBY           0.00           0      0.00      0.00      0.00     0.000      0.00    0.0    0.0
  CLM086_DUTY             17.01          55      0.00      7.31     30.86     0.054      1.41    0.0    0.0
  CLM086_STANDBY           0.00           0      0.00      0.00      0.00     0.000      0.00    0.0    0.0
  CLM087_DUTY             20.81         198      0.00     53.06    101.09     0.477     29.34    0.0    0.0
  CLM087_STANDBY           0.00           0      0.00      0.00      0.00     0.000      0.00    0.0    0.0
  CLM088_DUTY              4.51           4      0.00      4.23     24.00     0.008      0.68    0.0    0.7
  CLM088_STANDBY           0.00           0      0.00      0.00      0.00     0.000      0.00    0.0    0.0
  CLM089_DUTY             18.75          12      0.00      5.26      5.30     0.043      0.72    0.0    1.3
  CLM089_STANDBY           0.00           0      0.00      0.00      0.00     0.000      0.00    0.0    0.0
  CLM091_DUTY             36.94          53      0.00     74.82    110.80     1.194     93.39    0.0    1.7
  CLM091_STANDBY           0.00           0      0.00      0.00      0.00     0.000      0.00    0.0    0.0
  CLM093_DUTY             34.06          26      0.00      2.93      2.95     0.043      0.25    0.0    0.0
  CLM093_STANDBY           0.00           0      0.00      0.00      0.00     0.000      0.00    0.0    0.0
  CLM094_LIFT              9.93         110      0.00     16.03     17.27     0.069      0.54    0.0    0.0
  CLM095_DUTY             22.13          98      0.00     26.15     45.50     0.250     14.49    0.0    1.3
  CLM095_STANDBY           0.00           0      0.00      0.00      0.00     0.000      0.00    0.0    0.0
  CLM096_DUTY             17.93          56      0.00     23.26     45.60     0.180      7.39    0.0    0.7
  CLM096_STANDBY           0.00           0      0.00      0.00      0.00     0.000      0.00    0.0    0.0
  CLM097_DUTY              8.75          73      0.00     40.02     52.90     0.151      6.56    0.0    7.8
  CLM097_STANDBY           0.00           0      0.00      0.00      0.00     0.000      0.00    0.0    0.0
  CLM098_DUTY             26.32          56      0.00     10.08     74.10     0.115     11.29    0.0    0.1
  CLM098_STANDBY           0.00           0      0.00      0.00      0.00     0.000      0.00    0.0    0.0
  CLM099_DUTY             66.48          48      0.00    118.92    148.56     3.415    218.85    0.0    0.0
  CLM099_STANDBY           0.00           0      0.00      0.00      0.00     0.000      0.00    0.0    0.0
  CLM100_DUTY             94.29           1      0.00     85.09     94.36     3.466     74.01    0.0    0.0
  CLM121_DUTY             45.84         112      0.00     33.87     45.00     0.671     11.48    0.0    0.2
  CLM121_STANDBY           0.00           0      0.00      0.00      0.00     0.000      0.00    0.0    0.0
  CLM122_DUTY              7.39           8      0.00      5.11      5.30     0.016      0.53    0.0    2.8
  CLM122_STANDBY           0.00           0      0.00      0.00      0.00     0.000      0.00    0.0    0.0
  CLM123_DUTY             36.78         118      0.00     17.07     60.00     0.271     16.13    0.0    0.0
  CLM123_STANDBY           0.00           0      0.00      0.00      0.00     0.000      0.00    0.0    0.0
  CLM124_DUTY             26.62          33      0.00     11.22     40.00     0.129      5.16    0.0    0.1
  CLM124_STANDBY           0.00           0      0.00      0.00      0.00     0.000      0.00    0.0    0.0
  CLM125_DUTY             34.59          46      0.00      4.25      4.65     0.064      2.47    0.0    0.1
  CLM125_STANDBY           0.00           0      0.00      0.00      0.00     0.000      0.00    0.0    0.0
  CLM127_DUTY             33.05         131      0.00     56.39    119.58     0.805     31.86    0.0    1.9
  CLM127_STANDBY           0.00           0      0.00      0.00      0.00     0.000      0.00    0.0    0.0
  CLM187_DUTY             16.02          43      0.00     27.04     53.60     0.187      7.04    0.0    0.0
  CLM187_STANDBY           0.00           0      0.00      0.00      0.00     0.000      0.00    0.0    0.0
  CLM188_DUTY             14.46          67      0.00     28.81     50.00     0.180      6.52    0.0    2.4
  CLM188_STANDBY           0.00           0      0.00      0.00      0.00     0.000      0.00    0.0    0.0
  PGS128_DUTY             57.72         109      0.00     62.59     92.00     1.561    112.56    0.0    0.3
  PGS128_STANDBY           0.00           0      0.00      0.00      0.00     0.000      0.00    0.0    0.0
  PGS129_DUTY             34.40          64      0.00     11.90     17.60     0.177     10.98    0.0    0.2
  PGS129_STANDBY           0.00           0      0.00      0.00      0.00     0.000      0.00    0.0    0.0
  PGS130_DUTY             58.60          96      0.00     21.79     50.00     0.552     23.21    0.0    0.1
  PGS130_STANDBY           0.00           0      0.00      0.00      0.00     0.000      0.00    0.0    0.0
  PGS200_DUTY             52.38         251      0.00     37.36     45.00     0.845     75.91    0.0    2.1
  PGS200_STANDBY           0.00           0      0.00      0.00      0.00     0.000      0.00    0.0    0.0
  PGS201_DUTY             54.10          31      0.00     12.79     52.49     0.299     23.47    0.0    0.0
  PGS201_STANDBY           0.00           0      0.00      0.00      0.00     0.000      0.00    0.0    0.0
  

  Analysis begun on:  Wed Jun 24 12:24:24 2026
  Analysis ended on:  Wed Jun 24 14:44:38 2026
  Total elapsed time: 02:20:14