
  EPA STORM WATER MANAGEMENT MODEL - VERSION 5.2 (Build 5.2.4)
  ------------------------------------------------------------

  WARNING 03: negative offset ignored for Link B091370B091365
  WARNING 03: negative offset ignored for Link B091540B091545
  WARNING 04: minimum elevation drop used for Conduit B091540B091545
  WARNING 03: negative offset ignored for Link B091545B091535
  WARNING 03: negative offset ignored for Link B091550B091545
  WARNING 03: negative offset ignored for Link B091840B091830
  WARNING 03: negative offset ignored for Link B091840B091830
  WARNING 03: negative offset ignored for Link B091895B091820
  WARNING 03: negative offset ignored for Link B091895B091820
  WARNING 03: negative offset ignored for Link B091905B091900
  WARNING 03: negative offset ignored for Link B092080B092075
  WARNING 08: elevation drop exceeds length for Conduit B092080B092075
  WARNING 03: negative offset ignored for Link B092085B090045
  WARNING 08: elevation drop exceeds length for Conduit B092085B090045
  WARNING 04: minimum elevation drop used for Conduit B092090B092085
  WARNING 08: elevation drop exceeds length for Conduit B092095B092090
  WARNING 03: negative offset ignored for Link B092120B092115
  WARNING 08: elevation drop exceeds length for Conduit B092120B092115
  WARNING 04: minimum elevation drop used for Conduit B092125B092120
  WARNING 03: negative offset ignored for Link B092130B092125
  WARNING 08: elevation drop exceeds length for Conduit B092130B092125
  WARNING 03: negative offset ignored for Link B092135B092130
  WARNING 08: elevation drop exceeds length for Conduit B092135B092130
  WARNING 04: minimum elevation drop used for Conduit B092140B092135
  WARNING 04: minimum elevation drop used for Conduit B092145B092140
  WARNING 04: minimum elevation drop used for Conduit B092150B092140
  WARNING 03: negative offset ignored for Link B09233023
  WARNING 08: elevation drop exceeds length for Conduit B09233023
  WARNING 03: negative offset ignored for Link B092413B092330
  WARNING 03: negative offset ignored for Link B092413B092330
  WARNING 03: negative offset ignored for Link B093310B093305
  WARNING 08: elevation drop exceeds length for Conduit B093310B093305
  WARNING 03: negative offset ignored for Link B100575B100570
  WARNING 03: negative offset ignored for Link B100690B100685
  WARNING 03: negative offset ignored for Link B100695B100690
  WARNING 04: minimum elevation drop used for Conduit B100695B100690
  WARNING 03: negative offset ignored for Link B100700B100695
  WARNING 03: negative offset ignored for Link B100700B100695
  WARNING 02: maximum depth increased for Node B092418
  
  ****************
  Analysis Options
  ****************
  Flow Units ............... GPM
  Process Models:
    Rainfall/Runoff ........ YES
    RDII ................... YES
    Snowmelt ............... NO
    Groundwater ............ NO
    Flow Routing ........... YES
    Ponding Allowed ........ YES
    Water Quality .......... NO
  Infiltration Method ...... HORTON
  Flow Routing Method ...... DYNWAVE
  Surcharge Method ......... EXTRAN
  Starting Date ............ 01/01/2014 00:00:00
  Ending Date .............. 01/04/2014 06:00:00
  Antecedent Dry Days ...... 5.0
  Report Time Step ......... 00:05:00
  Wet Time Step ............ 00:05:00
  Dry Time Step ............ 01:00:00
  Routing Time Step ........ 30.00 sec
  Variable Time Step ....... YES
  Maximum Trials ........... 8
  Number of Threads ........ 1
  Head Tolerance ........... 0.005000 ft
  
  
  **********************           Volume        Volume
  Rainfall Dependent I/I        acre-feet      10^6 gal
  **********************        ---------     ---------
  Sewershed Rainfall ......         0.033         0.011
  RDII Produced ...........         0.005         0.002
  RDII Ratio ..............         0.159
  
  
  **************************        Volume         Depth
  Runoff Quantity Continuity     acre-feet        inches
  **************************     ---------       -------
  Total Precipitation ......         0.033         0.390
  Evaporation Loss .........         0.000         0.000
  Infiltration Loss ........         0.029         0.347
  Surface Runoff ...........         0.001         0.011
  Final Storage ............         0.003         0.032
  Continuity Error (%) .....         0.000
  
  
  **************************        Volume        Volume
  Flow Routing Continuity        acre-feet      10^6 gal
  **************************     ---------     ---------
  Dry Weather Inflow .......        37.789        12.314
  Wet Weather Inflow .......         0.001         0.000
  Groundwater Inflow .......         0.000         0.000
  RDII Inflow ..............         0.005         0.002
  External Inflow ..........         0.000         0.000
  External Outflow .........         9.756         3.179
  Flooding Loss ............        27.591         8.991
  Evaporation Loss .........         0.000         0.000
  Exfiltration Loss ........         0.000         0.000
  Initial Stored Volume ....         0.000         0.000
  Final Stored Volume ......         0.145         0.047
  Continuity Error (%) .....         0.801
  
  
  *************************
  Highest Continuity Errors
  *************************
  Node B092418 (1.81%)
  Node B092125 (1.52%)
  Node B092135 (1.52%)
  Node B092080 (1.51%)
  Node B093310 (1.37%)
  
  
  ***************************
  Time-Step Critical Elements
  ***************************
  Link B091745B091740 (58.24%)
  Link B091735B091730 (19.45%)
  Link B091370B091365 (14.24%)
  Link B091375B091370 (5.64%)
  Link B100575B100570 (1.66%)
  
  
  ********************************
  Highest Flow Instability Indexes
  ********************************
  Link B100595B100590 (4)
  Link B100590B100585 (3)
  Link B100600B100595 (2)
  Link B100605B100600 (2)
  Link B100610B100605 (2)
  
  
  *********************************
  Most Frequent Nonconverging Nodes
  *********************************
  Node B100560 (1.42%)
  Node B091745 (0.54%)
  Node B091750 (0.45%)
  Node B091930 (0.45%)
  Node B091740 (0.42%)
  
  
  *************************
  Routing Time Step Summary
  *************************
  Minimum Time Step           :     0.62 sec
  Average Time Step           :     7.64 sec
  Maximum Time Step           :    30.00 sec
  % of Time in Steady State   :     0.00
  Average Iterations per Step :     2.19
  % of Steps Not Converging   :     1.42
  Time Step Frequencies       :
     30.000 -  3.817 sec      :    98.49 %
      3.817 -  0.486 sec      :     1.51 %
      0.486 -  0.062 sec      :     0.00 %
      0.062 -  0.008 sec      :     0.00 %
      0.008 -  0.001 sec      :     0.00 %
  
  
  ***************************
  Subcatchment Runoff Summary
  ***************************
  
  ------------------------------------------------------------------------------------------------------------------------------
                            Total      Total      Total      Total     Imperv       Perv      Total       Total     Peak  Runoff
                           Precip      Runon       Evap      Infil     Runoff     Runoff     Runoff      Runoff   Runoff   Coeff
  Subcatchment                 in         in         in         in         in         in         in    10^6 gal      GPM
  ------------------------------------------------------------------------------------------------------------------------------
  SUB-10                     0.39       0.00       0.00       0.35       0.01       0.00       0.01        0.00     1.17   0.027
  
  
  ******************
  Node Depth Summary
  ******************
  
  ---------------------------------------------------------------------------------
                                 Average  Maximum  Maximum  Time of Max    Reported
                                   Depth    Depth      HGL   Occurrence   Max Depth
  Node                 Type         Feet     Feet     Feet  days hr:min        Feet
  ---------------------------------------------------------------------------------
  B090005              JUNCTION     0.30     0.46   926.11     1  09:00        0.46
  B090010              JUNCTION     0.31     0.47   927.48     1  09:00        0.47
  B090015              JUNCTION     0.43     0.66   928.25     1  09:00        0.66
  B090020              JUNCTION     0.32     0.50   929.47     1  09:00        0.50
  B090025              JUNCTION     0.37     0.58   930.59     1  09:00        0.58
  B090030              JUNCTION     0.20     0.30   931.20     1  09:00        0.30
  B090035              JUNCTION     0.16     0.24   932.41     1  09:00        0.24
  B090040              JUNCTION     0.17     0.26   933.63     1  09:00        0.26
  B090045              JUNCTION     0.13     0.19   935.99     1  09:00        0.19
  B090050              JUNCTION     0.78     1.27   938.82     1  09:00        1.27
  B090055              JUNCTION     0.54     0.82   941.86     1  09:00        0.82
  B090060              JUNCTION     0.11     0.17   942.92     1  09:00        0.17
  B090065              JUNCTION     0.08     0.12   944.49     1  08:58        0.12
  B091345              JUNCTION     1.29     1.91   942.78     1  09:00        1.91
  B091350              JUNCTION     0.55     0.83   943.03     1  09:00        0.83
  B091355              JUNCTION     0.60     0.93   943.67     1  09:00        0.93
  B091360              JUNCTION     0.69     2.58   948.56     1  08:44        2.57
  B091361              JUNCTION     0.43     1.60   949.65     1  08:44        1.55
  B091365              JUNCTION     0.37     0.57   949.62     1  09:00        0.57
  B091370              JUNCTION     0.72     1.44   950.60     1  09:00        1.43
  B091375              JUNCTION     0.73     1.75   951.07     1  09:00        1.75
  B091380              JUNCTION     0.64     2.01   951.75     1  09:00        2.00
  B091385              JUNCTION     0.63     2.59   954.14     1  09:00        2.59
  B091390              JUNCTION     0.39     0.69   956.67     1  09:00        0.69
  B091395              JUNCTION     0.40     0.65   960.83     1  09:00        0.65
  B091400              JUNCTION     0.39     0.65   964.97     1  09:00        0.65
  B091405              JUNCTION     0.41     0.69   967.69     1  09:00        0.69
  B091410              JUNCTION     0.68     1.99   970.19     1  09:00        1.99
  B091415              JUNCTION     0.37     0.61   971.68     2  09:00        0.61
  B091420              JUNCTION     0.23     0.36   975.54     0  08:59        0.36
  B091425              JUNCTION     0.23     0.35   979.11     0  08:59        0.35
  B091430              JUNCTION     0.23     0.37   983.14     0  08:57        0.37
  B091435              JUNCTION     0.36     0.59   983.97     1  09:00        0.59
  B091440              JUNCTION     0.35     0.56   984.70     1  08:59        0.56
  B091445              JUNCTION     0.14     0.21   987.74     1  09:00        0.21
  B091450              JUNCTION     0.11     0.18   988.27     1  08:27        0.18
  B091455              JUNCTION     0.06     0.10   989.75     0  08:49        0.10
  B091475              JUNCTION     0.33     0.53   985.10     0  08:53        0.53
  B091480              JUNCTION     0.28     0.44   985.44     0  08:57        0.44
  B091485              JUNCTION     0.20     0.33   988.76     0  08:59        0.33
  B091490              JUNCTION     0.12     0.18   988.79     1  08:32        0.18
  B091495              JUNCTION     0.05     0.08   995.12     2  08:13        0.08
  B091510              JUNCTION     0.69     3.39   972.70     1  09:01        3.38
  B091515              JUNCTION     0.70     3.97   974.18     1  09:00        3.96
  B091520              JUNCTION     0.71     4.41   975.45     1  09:00        4.41
  B091525              JUNCTION     0.65     4.41   976.17     1  09:00        4.41
  B091530              JUNCTION     0.55     4.06   977.00     1  09:00        4.06
  B091535              JUNCTION     0.28     2.55   977.18     1  09:00        2.54
  B091540              JUNCTION     0.20     0.29   980.65     1  08:58        0.29
  B091545              JUNCTION     0.14     0.22   980.58     0  08:58        0.22
  B091550              JUNCTION     0.10     0.16   987.60     1  08:48        0.16
  B091555              JUNCTION     0.14     0.22   990.93     1  08:45        0.22
  B091560              JUNCTION     0.12     0.18   991.17     2  08:23        0.18
  B091565              JUNCTION     6.02     6.07   997.86     0  08:12        6.07
  B091650              JUNCTION     0.14     0.22   989.17     0  08:09        0.22
  B091655              JUNCTION     0.08     0.13   993.62     2  08:08        0.13
  B091660              JUNCTION     0.09     0.14   996.14     0  08:06        0.14
  B091665              JUNCTION     0.05     0.08   997.76     1  08:09        0.08
  B091675              JUNCTION     0.24     0.39   985.53     1  08:53        0.39
  B091680              JUNCTION     0.11     0.16   986.66     0  08:28        0.16
  B091685              JUNCTION     0.09     0.14   994.06     2  08:36        0.14
  B091690              JUNCTION     0.05     0.08   998.96     0  08:11        0.08
  B091695              JUNCTION     0.06     0.09  1003.81     0  08:09        0.09
  B091705              JUNCTION     0.06     0.09   988.47     0  08:31        0.09
  B091710              JUNCTION     0.05     0.08   988.73     2  08:43        0.08
  B091715              JUNCTION     0.15     1.74   977.04     1  09:00        1.74
  B091720              JUNCTION     0.07     0.10   985.14     2  08:24        0.10
  B091725              JUNCTION     0.05     0.07   994.07     1  08:16        0.07
  B091730              JUNCTION     1.25     3.70   954.74     2  08:02        3.68
  B091735              JUNCTION     0.84     2.19   955.78     0  08:02        2.19
  B091740              JUNCTION     1.08     3.99   958.28     1  08:05        3.93
  B091745              JUNCTION     1.29     5.01   959.60     0  08:05        4.94
  B091750              JUNCTION     1.55     6.74   962.20     0  08:05        6.74
  B091755              JUNCTION     0.15     0.23   967.94     1  09:00        0.23
  B091760              JUNCTION     0.33     0.57   968.84     1  09:00        0.57
  B091765              JUNCTION     0.26     0.43   969.79     1  09:00        0.43
  B091770              JUNCTION     0.24     0.40   970.07     1  09:00        0.40
  B091775              JUNCTION     0.21     0.34   970.76     1  09:00        0.34
  B091780              JUNCTION     0.18     0.28   971.59     1  09:00        0.28
  B091785              JUNCTION     0.16     0.25   972.36     1  09:00        0.25
  B091790              JUNCTION     0.14     0.22   977.37     1  09:00        0.22
  B091795              JUNCTION     0.08     0.13   983.67     1  08:45        0.13
  B091800              JUNCTION     0.04     0.07   987.62     0  08:08        0.07
  B091805              JUNCTION     0.10     0.15   981.09     0  08:56        0.15
  B091810              JUNCTION     0.07     0.11   982.63     1  08:23        0.11
  B091815              JUNCTION     0.09     0.13   978.77     2  09:00        0.13
  B091820              JUNCTION     0.12     0.18   973.89     2  08:47        0.18
  B091825              JUNCTION     0.10     0.16   979.16     0  08:35        0.16
  B091830              JUNCTION     0.08     0.13   987.13     0  08:34        0.13
  B091835              JUNCTION     0.05     0.07   996.07     0  08:17        0.07
  B091840              JUNCTION     0.05     0.07   997.07     1  08:10        0.07
  B091845              JUNCTION     0.70     5.36   964.54     0  08:05        4.81
  B091850              JUNCTION     0.51     3.83   965.95     0  08:05        3.43
  B091855              JUNCTION     0.24     1.29   966.32     2  08:15        1.29
  B091860              JUNCTION     0.22     0.35   966.94     2  08:05        0.35
  B091865              JUNCTION     0.15     0.23   968.58     1  08:22        0.23
  B091870              JUNCTION     0.10     0.15   973.68     2  08:08        0.15
  B091875              JUNCTION     0.07     0.10   991.68     0  08:07        0.10
  B091880              JUNCTION     0.07     0.10   998.65     2  08:06        0.10
  B091885              JUNCTION     0.07     0.11  1000.08     1  08:03        0.11
  B091890              JUNCTION     0.05     0.08   982.69     0  08:46        0.08
  B091895              JUNCTION     0.08     0.13   975.05     0  08:41        0.13
  B091900              JUNCTION     0.15     0.24   967.40     0  08:49        0.24
  B091905              JUNCTION     0.06     0.10   980.07     0  08:27        0.10
  B091910              JUNCTION     0.04     0.07   995.51     0  08:22        0.07
  B091915              JUNCTION     0.05     0.08   982.70     0  08:26        0.08
  B091920              JUNCTION     0.05     0.07   991.14     0  08:44        0.07
  B091925              JUNCTION     0.04     0.06   984.69     2  08:11        0.06
  B091930              JUNCTION     1.34     6.50   962.20     0  08:05        6.50
  B091935              JUNCTION     0.09     0.15   962.92     1  08:59        0.15
  B091940              JUNCTION     0.06     0.09   976.69     2  08:40        0.09
  B091945              JUNCTION     0.09     0.13   977.79     2  08:44        0.13
  B091960              JUNCTION     0.09     0.13   958.34     2  08:55        0.13
  B091965              JUNCTION     0.09     0.14   967.19     1  08:52        0.14
  B091970              JUNCTION     0.11     0.17   977.10     1  08:53        0.17
  B091975              JUNCTION     0.16     0.25   978.15     0  09:00        0.25
  B091980              JUNCTION     0.08     0.13   983.03     0  08:26        0.13
  B091985              JUNCTION     0.07     0.10   992.00     0  08:41        0.10
  B091990              JUNCTION     0.05     0.08   997.08     0  08:44        0.08
  B091995              JUNCTION     0.57     1.68   933.07     1  09:00        1.68
  B092000              JUNCTION     0.20     0.33   937.63     2  09:00        0.33
  B092005              JUNCTION     0.22     0.35   941.80     1  09:00        0.35
  B092010              JUNCTION     0.21     0.33   953.88     1  09:00        0.33
  B092015              JUNCTION     0.14     0.22   962.12     0  09:00        0.22
  B092020              JUNCTION     0.20     0.33   967.04     2  09:00        0.33
  B092025              JUNCTION     0.24     0.39   967.40     0  09:00        0.39
  B092030              JUNCTION     0.10     0.15   974.15     0  08:59        0.15
  B092035              JUNCTION     0.16     0.25   981.32     2  09:00        0.25
  B092040              JUNCTION     0.22     0.35   981.83     1  09:00        0.35
  B092045              JUNCTION     0.10     0.15   987.75     0  09:00        0.15
  B092050              JUNCTION     0.11     0.16   991.44     1  09:00        0.16
  B092055              JUNCTION     0.17     0.26   991.92     2  09:00        0.26
  B092060              JUNCTION     0.14     0.22   993.34     1  09:00        0.22
  B092065              JUNCTION     0.04     0.07  1002.49     0  08:26        0.07
  B092070              JUNCTION     0.04     0.06  1021.74     1  08:29        0.06
  B092075              JUNCTION     0.01     0.02  1024.81     2  08:17        0.02
  B092080              JUNCTION     0.99     1.00     1.00     0  01:57        1.00
  B092085              JUNCTION     1.00     1.00     1.00     0  00:16        1.00
  B092090              JUNCTION     1.00     1.00     1.00     0  00:16        1.00
  B092095              JUNCTION     0.03     0.04   942.08     1  08:47        0.04
  B092100              JUNCTION     0.08     0.12   946.82     1  08:47        0.12
  B092105              JUNCTION     0.06     0.09   950.11     2  08:12        0.09
  B092110              JUNCTION     0.03     0.05   984.95     1  08:39        0.05
  B092115              JUNCTION     0.02     0.03   993.58     0  08:13        0.03
  B092120              JUNCTION     0.99     1.00     1.00     0  01:00        1.00
  B092125              JUNCTION     0.99     1.00     1.00     0  01:00        1.00
  B092130              JUNCTION     0.01     0.02   993.14     0  08:21        0.02
  B092135              JUNCTION     0.99     1.00     1.00     0  00:50        1.00
  B092140              JUNCTION     0.99     1.00     1.00     0  00:50        1.00
  B092145              JUNCTION     0.99     1.00     1.00     0  00:50        1.00
  B092150              JUNCTION     0.99     1.00     1.00     0  00:50        1.00
  B092160              JUNCTION     0.06     0.09  1003.09     1  08:43        0.09
  B092165              JUNCTION     0.04     0.06  1015.36     1  08:13        0.06
  B092170              JUNCTION     0.07     0.10  1000.10     1  08:15        0.10
  B092175              JUNCTION     0.05     0.08  1020.08     2  08:13        0.08
  B092180              JUNCTION     0.04     0.06  1028.66     0  08:14        0.06
  B092185              JUNCTION     0.10     0.15   993.58     2  08:44        0.15
  B092190              JUNCTION     0.10     0.15   962.81     0  08:27        0.15
  B092195              JUNCTION     0.04     0.07   971.07     2  08:16        0.07
  B092330              JUNCTION     0.03     0.05   938.62     0  08:22        0.05
  B092413              JUNCTION     0.20     0.35   947.20     0  08:21        0.35
  B092415              JUNCTION     0.47     1.75   949.68     0  08:10        1.63
  B092416              JUNCTION     0.21     1.37   949.73     0  08:10        1.22
  B092418              JUNCTION     3.75     3.84   952.20     1  08:09        3.84
  B092420              JUNCTION     0.08     0.13   952.20     1  08:07        0.13
  B093240              JUNCTION     0.17     0.27   955.90     1  09:00        0.27
  B093245              JUNCTION     0.17     0.26   964.86     1  09:00        0.26
  B093250              JUNCTION     0.22     0.36   969.01     1  09:00        0.36
  B093255              JUNCTION     0.25     0.41   971.16     1  09:00        0.41
  B093260              JUNCTION     0.24     0.40   972.14     1  09:00        0.40
  B093265              JUNCTION     0.13     0.21   975.21     1  08:15        0.21
  B093275              JUNCTION     0.16     0.24   978.24     1  08:14        0.24
  B093280              JUNCTION     0.18     0.29   979.51     1  08:11        0.29
  B093285              JUNCTION     0.12     0.19   982.27     2  08:29        0.19
  B093290              JUNCTION     0.13     0.21   982.65     2  08:32        0.21
  B093295              JUNCTION     0.11     0.17   983.26     2  08:33        0.17
  B093300              JUNCTION     0.08     0.12   983.82     1  08:20        0.12
  B093305              JUNCTION     0.01     0.02   984.49     0  08:14        0.02
  B093310              JUNCTION     0.99     1.00     1.00     0  01:31        1.00
  B093345              JUNCTION     0.14     0.22   972.88     1  09:00        0.22
  B093350              JUNCTION     0.08     0.12   974.10     1  08:57        0.12
  B096045              JUNCTION     0.30     0.52   939.52     1  08:48        0.52
  B096050              JUNCTION     0.17     0.27   944.17     1  08:42        0.27
  B096055              JUNCTION     0.07     0.10   958.20     2  08:22        0.10
  B096060              JUNCTION     0.07     0.11   962.11     2  08:43        0.11
  B096065              JUNCTION     0.06     0.09   967.09     0  08:32        0.09
  B096370              JUNCTION     0.04     0.07   988.12     0  08:16        0.07
  B096375              JUNCTION     0.05     0.07   986.71     0  08:19        0.07
  B100565              JUNCTION     0.52     0.74   923.06     1  09:00        0.74
  B100570              JUNCTION     0.73     0.84   925.17     1  09:00        0.84
  B100575              JUNCTION     5.97     6.41   925.96     1  08:00        6.35
  B100580              JUNCTION     5.34     5.92   926.46     1  08:00        5.84
  B100585              JUNCTION     5.06     5.69   926.68     1  08:00        5.59
  B100590              JUNCTION     4.87     5.49   926.68     1  08:00        5.40
  B100595              JUNCTION     4.71     5.32   926.67     1  08:00        5.24
  B100600              JUNCTION     4.34     4.93   926.66     1  08:00        4.87
  B100605              JUNCTION     3.98     4.50   926.59     0  07:00        4.50
  B100610              JUNCTION     3.38     3.97   926.67     0  08:00        3.93
  B100615              JUNCTION     0.12     0.18   930.69     1  09:00        0.18
  B100620              JUNCTION     0.21     0.34   932.31     1  08:57        0.34
  B100625              JUNCTION     0.19     0.29   933.36     1  08:52        0.29
  B100630              JUNCTION     0.09     0.15   935.78     1  08:47        0.15
  B100635              JUNCTION     0.08     0.12   937.12     2  08:42        0.12
  B100650              JUNCTION     0.10     0.16   934.41     0  08:49        0.16
  B100655              JUNCTION     0.05     0.08   941.80     1  08:13        0.08
  B100685              JUNCTION     0.14     0.22   930.53     1  09:00        0.22
  B100690              JUNCTION     0.12     0.19   939.01     1  09:00        0.19
  B100695              JUNCTION     0.38     0.57   939.39     1  09:00        0.57
  B100700              JUNCTION     0.07     0.10   953.54     0  08:58        0.10
  B100705              JUNCTION     0.09     0.14   954.36     0  08:43        0.14
  B100710              JUNCTION     0.08     0.13   943.93     2  08:43        0.13
  B100715              JUNCTION     0.05     0.08   948.88     0  08:14        0.08
  B100720              JUNCTION     0.08     0.13   943.93     2  08:53        0.13
  B100725              JUNCTION     0.05     0.08   948.88     2  08:25        0.08
  JCT-12               JUNCTION   304.81   601.35   601.35     3  06:00      601.35
  JCT-14               JUNCTION     1.48     1.50     1.50     0  03:42        1.50
  JCT-16               JUNCTION     0.00     0.00     0.00     0  00:00        0.00
  PRIVATE              JUNCTION     1.00     1.00     1.00     0  00:08        1.00
  B100560              OUTFALL      0.43     0.62   922.52     1  09:00        0.62
  
  
  *******************
  Node Inflow Summary
  *******************
  
  -------------------------------------------------------------------------------------------------
                                  Maximum  Maximum                  Lateral       Total        Flow
                                  Lateral    Total  Time of Max      Inflow      Inflow     Balance
                                   Inflow   Inflow   Occurrence      Volume      Volume       Error
  Node                 Type           GPM      GPM  days hr:min    10^6 gal    10^6 gal     Percent
  -------------------------------------------------------------------------------------------------
  B090005              JUNCTION     30.49  1047.92     1  09:00      0.0565        1.95       0.014
  B090010              JUNCTION     30.49  1017.55     1  09:00      0.0565         1.9       0.019
  B090015              JUNCTION     30.49   987.39     1  09:00      0.0565        1.84       0.026
  B090020              JUNCTION     31.41   956.98     1  09:00      0.0568        1.79       0.046
  B090025              JUNCTION     30.49   925.86     1  09:00      0.0565        1.73       0.064
  B090030              JUNCTION     30.49   249.21     1  09:00      0.0565       0.478       0.043
  B090035              JUNCTION     30.49   218.85     1  09:00      0.0565       0.422       0.038
  B090040              JUNCTION     30.49   188.61     1  09:00      0.0565       0.365       0.079
  B090045              JUNCTION     30.49  3243.89     1  09:00      0.0565        6.56       0.007
  B090050              JUNCTION     30.49  3214.22     1  09:00      0.0565         6.5       0.012
  B090055              JUNCTION     30.49  2819.36     1  09:00      0.0565        5.77       0.026
  B090060              JUNCTION     30.49    60.98     0  08:58      0.0565       0.113       0.070
  B090065              JUNCTION     30.49    30.49     0  08:00      0.0565      0.0565       0.067
  B091345              JUNCTION     30.49  2728.55     1  09:00      0.0565         5.6       0.091
  B091350              JUNCTION     30.49  2698.54     1  09:00      0.0565        5.55       0.009
  B091355              JUNCTION     30.49  2668.69     1  09:00      0.0565        5.49       0.010
  B091360              JUNCTION     30.49  2638.35     1  09:00      0.0565        5.44       0.017
  B091361              JUNCTION     30.49  2608.12     1  09:00      0.0565        5.38       0.005
  B091365              JUNCTION     30.49  2577.99     1  09:00      0.0565        5.32       0.008
  B091370              JUNCTION     30.49  1753.34     1  09:00      0.0565        3.32       0.009
  B091375              JUNCTION     30.49  1722.99     1  09:00      0.0565        3.27       0.008
  B091380              JUNCTION     30.49  1692.59     1  09:00      0.0565        3.21       0.015
  B091385              JUNCTION     30.49  1663.63     1  09:00      0.0565        3.15       0.025
  B091390              JUNCTION     30.49  1636.66     1  09:00      0.0565         3.1       0.020
  B091395              JUNCTION     30.49  1607.33     1  09:00      0.0565        3.04       0.020
  B091400              JUNCTION     30.49  1577.86     1  09:00      0.0565        2.99       0.018
  B091405              JUNCTION     30.49  1548.43     1  09:00      0.0565        2.93       0.020
  B091410              JUNCTION     30.49  1522.46     1  09:00      0.0565        2.87       0.029
  B091415              JUNCTION     30.49   914.63     2  08:59      0.0565        1.69       0.029
  B091420              JUNCTION     30.49   701.21     0  08:59      0.0565         1.3       0.016
  B091425              JUNCTION     30.49   670.73     1  08:59      0.0565        1.24       0.017
  B091430              JUNCTION     30.49   640.24     0  08:58      0.0565        1.18       0.018
  B091435              JUNCTION     30.49   609.75     0  08:59      0.0565        1.13       0.036
  B091440              JUNCTION     30.49   579.26     1  08:56      0.0565        1.07       0.038
  B091445              JUNCTION     30.49    91.46     0  08:25      0.0565       0.169       0.077
  B091450              JUNCTION     30.49    60.98     0  08:12      0.0565       0.113       0.034
  B091455              JUNCTION     30.49    30.49     0  08:00      0.0565      0.0565       0.013
  B091475              JUNCTION     30.49   457.31     0  08:48      0.0565       0.846       0.031
  B091480              JUNCTION     30.49   426.83     1  08:55      0.0565        0.79       0.020
  B091485              JUNCTION     30.49   213.41     0  08:28      0.0565       0.395       0.042
  B091490              JUNCTION     30.49    60.98     0  08:13      0.0565       0.113       0.039
  B091495              JUNCTION     30.49    30.49     0  08:00      0.0565      0.0565       0.017
  B091510              JUNCTION     30.49   585.75     1  09:00      0.0565        1.13       0.031
  B091515              JUNCTION     30.49   525.02     1  09:00      0.0565        1.01       0.025
  B091520              JUNCTION     30.49   504.83     1  09:00      0.0565       0.959       0.022
  B091525              JUNCTION     30.49   431.63     1  08:41      0.0565       0.789       0.015
  B091530              JUNCTION     30.49   368.24     1  08:41      0.0565       0.677       0.036
  B091535              JUNCTION     30.49   243.90     0  08:53      0.0565       0.451       0.017
  B091540              JUNCTION     30.49    60.98     0  08:19      0.0565       0.113       0.098
  B091545              JUNCTION     30.49   213.41     0  08:54      0.0565       0.395       0.032
  B091550              JUNCTION     30.49   121.95     2  08:43      0.0565       0.225       0.014
  B091555              JUNCTION     30.49    91.46     0  08:24      0.0565       0.169       0.055
  B091560              JUNCTION     30.49    60.98     0  08:08      0.0565       0.112       0.032
  B091565              JUNCTION     30.49    30.49     0  08:00      0.0565      0.0565       1.020
  B091650              JUNCTION     30.49   121.95     0  08:08      0.0565       0.226       0.016
  B091655              JUNCTION     30.49    91.46     0  08:06      0.0565       0.169       0.020
  B091660              JUNCTION     30.49    60.98     0  08:05      0.0565       0.113       0.027
  B091665              JUNCTION     30.49    30.49     0  08:00      0.0565      0.0565       0.008
  B091675              JUNCTION     30.49   182.93     2  08:59      0.0565       0.339       0.066
  B091680              JUNCTION     30.49   121.95     0  08:23      0.0565       0.226       0.030
  B091685              JUNCTION     30.49    91.46     0  08:11      0.0565       0.169       0.027
  B091690              JUNCTION     30.49    60.98     2  08:09      0.0565       0.113       0.019
  B091695              JUNCTION     30.49    30.49     0  08:00      0.0565      0.0565       0.023
  B091705              JUNCTION     30.49    30.49     0  08:00      0.0565      0.0565       0.025
  B091710              JUNCTION     30.49    30.49     0  08:00      0.0565      0.0565       0.020
  B091715              JUNCTION     30.49    91.46     0  08:20      0.0565       0.169       0.025
  B091720              JUNCTION     30.49    60.98     0  08:11      0.0565       0.113       0.027
  B091725              JUNCTION     30.49    30.49     0  08:00      0.0565      0.0565       0.014
  B091730              JUNCTION     30.49   794.22     1  09:00      0.0565        1.95       0.013
  B091735              JUNCTION     30.49   934.43     2  08:10      0.0565        1.95       0.015
  B091740              JUNCTION     30.49   903.93     0  08:06      0.0565         1.9       0.007
  B091745              JUNCTION     30.49   873.48     2  08:10      0.0565        1.84       0.008
  B091750              JUNCTION     30.49   868.66     2  08:15      0.0565        1.79       0.030
  B091755              JUNCTION     30.49   396.34     1  09:00      0.0565       0.733       0.010
  B091760              JUNCTION     30.49   365.85     1  09:00      0.0565       0.677       0.032
  B091765              JUNCTION     30.49   304.87     1  09:00      0.0565       0.564       0.025
  B091770              JUNCTION     30.49   274.39     1  09:00      0.0565       0.508       0.019
  B091775              JUNCTION     30.49   213.41     1  09:00      0.0565       0.395       0.033
  B091780              JUNCTION     30.49   152.44     1  09:00      0.0565       0.282       0.038
  B091785              JUNCTION     30.49   121.95     2  09:00      0.0565       0.226       0.019
  B091790              JUNCTION     30.49    91.46     0  08:35      0.0565       0.169       0.106
  B091795              JUNCTION     30.49    60.98     0  08:05      0.0565       0.113       0.041
  B091800              JUNCTION     30.49    30.49     0  08:00      0.0565      0.0565       0.007
  B091805              JUNCTION     30.49    60.98     0  08:18      0.0565       0.113       0.072
  B091810              JUNCTION     30.49    30.49     0  08:00      0.0565      0.0565       0.019
  B091815              JUNCTION     30.49    30.49     0  08:00      0.0565      0.0565       0.059
  B091820              JUNCTION     30.49   182.93     0  08:36      0.0565       0.339       0.043
  B091825              JUNCTION     30.49   121.95     0  08:35      0.0565       0.226       0.022
  B091830              JUNCTION     30.49    91.46     0  08:17      0.0565       0.169       0.037
  B091835              JUNCTION     30.49    30.49     0  08:00      0.0565      0.0565       0.013
  B091840              JUNCTION     30.49    30.49     0  08:00      0.0565      0.0565       0.011
  B091845              JUNCTION     30.49   429.82     2  08:15      0.0565        0.79       0.035
  B091850              JUNCTION     30.49   398.13     2  08:15      0.0565       0.734       0.027
  B091855              JUNCTION     30.49   370.92     0  08:06      0.0565       0.677       0.016
  B091860              JUNCTION     30.49   335.36     0  08:24      0.0565       0.621       0.023
  B091865              JUNCTION     30.49   152.44     0  08:08      0.0565       0.282       0.027
  B091870              JUNCTION     30.49   121.95     0  08:07      0.0565       0.226       0.020
  B091875              JUNCTION     30.49    91.46     0  08:06      0.0565       0.169       0.017
  B091880              JUNCTION     30.49    60.98     2  08:04      0.0565       0.113       0.025
  B091885              JUNCTION     30.49    30.49     0  08:00      0.0565      0.0565       0.022
  B091890              JUNCTION     30.49    30.49     0  08:00      0.0565      0.0565       0.054
  B091895              JUNCTION     30.49    30.49     0  08:00      0.0565      0.0565       0.043
  B091900              JUNCTION     30.49   152.44     2  08:23      0.0565       0.282       0.024
  B091905              JUNCTION     30.49    60.98     0  08:33      0.0565       0.113       0.014
  B091910              JUNCTION     30.49    30.49     0  08:00      0.0565      0.0565       0.029
  B091915              JUNCTION     30.49    60.98     0  08:10      0.0565       0.113       0.023
  B091920              JUNCTION     30.49    30.49     0  08:00      0.0565      0.0565       0.011
  B091925              JUNCTION     30.49    30.49     0  08:00      0.0565      0.0565       0.016
  B091930              JUNCTION     30.49   152.43     2  07:06      0.0565       0.226      -0.050
  B091935              JUNCTION     30.49    91.46     0  08:31      0.0565       0.169       0.074
  B091940              JUNCTION     30.49    60.98     1  08:40      0.0565       0.113       0.025
  B091945              JUNCTION     30.49    30.49     0  08:00      0.0565      0.0565       0.042
  B091960              JUNCTION     30.49   213.41     1  08:45      0.0565       0.395       0.009
  B091965              JUNCTION     30.49   182.93     0  08:37      0.0565       0.339       0.010
  B091970              JUNCTION     30.49   152.44     1  08:53      0.0565       0.282       0.023
  B091975              JUNCTION     30.49   121.95     0  08:24      0.0565       0.226       0.036
  B091980              JUNCTION     30.49    91.46     1  08:22      0.0565       0.169       0.021
  B091985              JUNCTION     30.49    60.98     1  08:26      0.0565       0.113       0.022
  B091990              JUNCTION     30.49    30.49     0  08:00      0.0565      0.0565       0.032
  B091995              JUNCTION     30.49   646.29     1  09:00      0.0565         1.2       0.022
  B092000              JUNCTION     30.49   615.80     2  09:00      0.0565        1.14       0.007
  B092005              JUNCTION     30.49   585.31     1  09:00      0.0565        1.08       0.009
  B092010              JUNCTION     30.49   554.83     0  09:00      0.0565        1.03       0.022
  B092015              JUNCTION     30.49   524.34     2  09:00      0.0565        0.97       0.008
  B092020              JUNCTION     30.49   432.88     2  08:59      0.0565       0.801       0.015
  B092025              JUNCTION     30.49   366.84     0  08:59      0.0565       0.679       0.011
  B092030              JUNCTION     30.49   336.36     1  09:00      0.0565       0.622       0.009
  B092035              JUNCTION     30.49   305.87     1  09:00      0.0565       0.566       0.019
  B092040              JUNCTION     30.49   214.41     2  09:00      0.0565       0.397       0.013
  B092045              JUNCTION     30.49   183.92     0  08:59      0.0565        0.34       0.012
  B092050              JUNCTION     30.49   153.43     1  09:00      0.0565       0.284       0.010
  B092055              JUNCTION     30.49   122.94     0  08:59      0.0565       0.227       0.015
  B092060              JUNCTION     30.49    92.46     0  08:27      0.0565       0.171       0.077
  B092065              JUNCTION     30.49    61.97     1  08:25      0.0565       0.115       0.031
  B092070              JUNCTION     30.49    31.48     2  08:17      0.0565      0.0581       0.001
  B092075              JUNCTION     30.49    30.49     0  08:00      0.0565      0.0565       0.018
  B092080              JUNCTION     30.49    59.98     0  08:17      0.0565       0.111       1.533
  B092085              JUNCTION     30.49  3115.77     1  09:00      0.0565         6.3       0.026
  B092090              JUNCTION     30.49   224.70     0  00:16      0.0565       0.228       0.520
  B092095              JUNCTION     30.49    91.46     0  08:43      0.0565       0.169       0.009
  B092100              JUNCTION     30.49    60.98     0  08:12      0.0565       0.113       0.053
  B092105              JUNCTION     30.49    30.49     0  08:00      0.0565      0.0565       0.014
  B092110              JUNCTION     30.49    35.55     1  08:13      0.0565      0.0658       0.016
  B092115              JUNCTION     30.49   121.95     1  08:44      0.0565       0.226       0.011
  B092120              JUNCTION     30.49   147.38     0  08:13      0.0565       0.273       1.009
  B092125              JUNCTION     30.49    66.04     0  08:08      0.0565       0.123       1.544
  B092130              JUNCTION     30.49    60.98     0  08:43      0.0565       0.113       0.013
  B092135              JUNCTION     30.49    56.22     0  08:20      0.0565       0.105       1.539
  B092140              JUNCTION     30.49    30.80     0  08:00      0.0565       0.058       1.203
  B092145              JUNCTION     30.49    30.49     0  08:00      0.0565      0.0565       0.451
  B092150              JUNCTION     30.49    30.78     0  08:00      0.0565      0.0572       0.312
  B092160              JUNCTION     30.49    60.98     2  08:11      0.0565       0.113       0.037
  B092165              JUNCTION     30.49    30.49     0  08:00      0.0565      0.0565       0.016
  B092170              JUNCTION     30.49    91.46     0  08:27      0.0565       0.169       0.012
  B092175              JUNCTION     30.49    60.98     0  08:10      0.0565       0.113       0.019
  B092180              JUNCTION     30.49    30.49     0  08:00      0.0565      0.0565       0.016
  B092185              JUNCTION     30.49    30.49     0  08:00      0.0565      0.0565       0.034
  B092190              JUNCTION     30.49    60.98     2  08:57      0.0565       0.113       0.016
  B092195              JUNCTION     30.49    30.49     0  08:00      0.0565      0.0565       0.019
  B092330              JUNCTION     30.49   610.81     0  08:21      0.0565        1.13       0.017
  B092413              JUNCTION     30.49   580.38     0  08:21      0.0565        1.07       0.010
  B092415              JUNCTION     30.49   551.00     1  08:15      0.0565        1.01       0.032
  B092416              JUNCTION     30.49    92.62     1  08:09      0.0565       0.167       0.018
  B092418              JUNCTION     30.49    63.51     0  08:03      0.0565       0.113       1.846
  B092420              JUNCTION     30.49    30.49     0  08:00      0.0565      0.0565       0.062
  B093240              JUNCTION     30.49   427.59     1  09:00      0.0565       0.791       0.013
  B093245              JUNCTION     30.49   397.10     2  09:00      0.0565       0.734       0.019
  B093250              JUNCTION     30.49   366.62     1  09:00      0.0565       0.678       0.033
  B093255              JUNCTION     30.49   336.13     1  09:00      0.0565       0.622       0.033
  B093260              JUNCTION     30.49   305.64     2  09:00      0.0565       0.565       0.021
  B093265              JUNCTION     30.49   214.18     1  08:15      0.0565       0.396       0.018
  B093275              JUNCTION     30.49   183.69     1  08:12      0.0565        0.34       0.036
  B093280              JUNCTION     30.49   153.20     0  08:19      0.0565       0.283       0.048
  B093285              JUNCTION     30.49   122.72     0  08:58      0.0565       0.227       0.019
  B093290              JUNCTION     30.49    92.23     1  08:45      0.0565       0.171       0.006
  B093295              JUNCTION     30.49    61.74     1  08:44      0.0565       0.114       0.024
  B093300              JUNCTION     30.49    31.25     0  08:51      0.0565      0.0576       0.023
  B093305              JUNCTION     30.49    30.49     0  08:00      0.0565      0.0565       0.015
  B093310              JUNCTION     30.49    60.21     0  08:14      0.0565       0.112       1.385
  B093345              JUNCTION     30.49    60.98     0  08:39      0.0565       0.113       0.115
  B093350              JUNCTION     30.49    30.49     0  08:00      0.0565      0.0565       0.040
  B096045              JUNCTION     30.49   365.85     0  08:40      0.0565       0.677       0.009
  B096050              JUNCTION     30.49   335.36     0  08:38      0.0565       0.621       0.023
  B096055              JUNCTION     30.49    91.46     1  08:20      0.0565       0.169       0.017
  B096060              JUNCTION     30.49    60.98     0  08:27      0.0565       0.113       0.021
  B096065              JUNCTION     30.49    30.49     0  08:00      0.0565      0.0565       0.030
  B096370              JUNCTION     30.49    30.49     0  08:00      0.0565      0.0565       0.023
  B096375              JUNCTION     30.49    30.49     0  08:00      0.0565      0.0565       0.018
  B100565              JUNCTION     30.49  1435.01     1  09:00      0.0565        3.18       0.030
  B100570              JUNCTION     30.49  1404.60     1  09:00      0.0565        3.13       0.027
  B100575              JUNCTION     35.76   337.43     1  08:00      0.0582        1.13       0.066
  B100580              JUNCTION     30.49   341.79     0  00:24      0.0565        1.07       0.047
  B100585              JUNCTION     30.49   352.18     0  00:23      0.0565        1.01       0.091
  B100590              JUNCTION     30.49   368.99     0  00:23      0.0565       0.955       0.141
  B100595              JUNCTION     30.49   394.13     0  00:23      0.0565       0.899       0.215
  B100600              JUNCTION     30.49   489.66     0  00:22      0.0565       0.843       0.282
  B100605              JUNCTION     30.49   548.77     1  09:00      0.0565        1.02       0.274
  B100610              JUNCTION     30.49   399.60     0  00:28      0.0565       0.452       0.254
  B100615              JUNCTION     30.49   213.41     0  08:58      0.0565       0.395       0.020
  B100620              JUNCTION     30.49   182.93     0  08:52      0.0565       0.339       0.061
  B100625              JUNCTION     30.49   152.44     0  08:44      0.0565       0.282       0.056
  B100630              JUNCTION     30.49    60.98     0  08:30      0.0565       0.113       0.057
  B100635              JUNCTION     30.49    30.49     0  08:00      0.0565      0.0565       0.039
  B100650              JUNCTION     30.49    60.98     0  08:12      0.0565       0.113       0.056
  B100655              JUNCTION     30.49    30.49     0  08:00      0.0565      0.0565       0.014
  B100685              JUNCTION     30.49   274.39     1  09:00      0.0565       0.507       0.014
  B100690              JUNCTION     30.49   243.90     1  09:00      0.0565       0.451       0.025
  B100695              JUNCTION     30.49   152.44     0  08:35      0.0565       0.282       0.232
  B100700              JUNCTION     30.49    60.98     1  08:41      0.0565       0.113       0.034
  B100705              JUNCTION     30.49    30.49     0  08:00      0.0565      0.0565       0.043
  B100710              JUNCTION     30.49    60.98     0  08:13      0.0565       0.113       0.043
  B100715              JUNCTION     30.49    30.49     0  08:00      0.0565      0.0565       0.016
  B100720              JUNCTION     30.49    60.98     0  08:12      0.0565       0.113       0.041
  B100725              JUNCTION     30.49    30.49     0  08:00      0.0565      0.0565       0.013
  JCT-12               JUNCTION     30.49    30.49     0  08:00      0.0565      0.0565   56482.467 gal
  JCT-14               JUNCTION     30.49   641.23     0  08:22      0.0565        1.18       0.000
  JCT-16               JUNCTION     30.49    30.49     0  08:00      0.0565      0.0565       0.000
  PRIVATE              JUNCTION     30.49    30.49     0  08:00      0.0565      0.0565       0.000
  B100560              OUTFALL       0.00  1434.81     1  09:00           0        3.18       0.000
  
  
  **********************
  Node Surcharge Summary
  **********************
  
  Surcharging occurs when water rises above the top of the highest conduit.
  ---------------------------------------------------------------------
                                               Max. Height   Min. Depth
                                   Hours       Above Crown    Below Rim
  Node                 Type      Surcharged           Feet         Feet
  ---------------------------------------------------------------------
  B091345              JUNCTION        5.12          0.140        4.024
  B091360              JUNCTION        6.15          1.584        3.436
  B091361              JUNCTION        1.55          0.596        3.404
  B091370              JUNCTION        6.81          0.437        1.643
  B091375              JUNCTION        7.64          0.754        1.826
  B091380              JUNCTION        6.88          1.012        1.798
  B091385              JUNCTION        5.81          1.589        2.791
  B091515              JUNCTION       10.17          3.300        6.824
  B091530              JUNCTION        6.36          3.398        0.785
  B091535              JUNCTION        4.87          1.879        1.495
  B091715              JUNCTION        2.07          1.070        4.263
  B091730              JUNCTION        9.69          0.777        0.527
  B091735              JUNCTION       24.39          1.523        0.000
  B091740              JUNCTION       22.17          3.328        0.316
  B091745              JUNCTION       22.26          4.340        0.033
  B091750              JUNCTION       21.06          6.073        0.000
  B091845              JUNCTION        6.40          4.693        0.000
  B091850              JUNCTION        5.84          3.168       10.445
  B091855              JUNCTION        2.38          0.627        3.626
  B091930              JUNCTION       13.48          4.533        0.000
  B092080              JUNCTION       76.17          0.332        0.000
  B092085              JUNCTION       77.73          0.332        0.000
  B092090              JUNCTION       77.73          0.332        0.000
  B092120              JUNCTION       77.01          0.332        0.000
  B092125              JUNCTION       77.01          0.332        0.000
  B092135              JUNCTION       77.17          0.332        0.000
  B092140              JUNCTION       77.17          0.332        0.000
  B092145              JUNCTION       77.18          0.332        0.000
  B092150              JUNCTION       77.18          0.332        0.000
  B092415              JUNCTION        6.20          1.082        3.251
  B092416              JUNCTION        5.50          0.706        3.907
  B093310              JUNCTION       76.58          0.332        0.000
  B100575              JUNCTION       77.83          5.739        4.044
  B100580              JUNCTION       77.80          5.249        4.544
  B100585              JUNCTION       77.69          4.445        0.555
  B100590              JUNCTION       77.65          4.155        1.681
  B100595              JUNCTION       77.61          3.984        0.603
  B100600              JUNCTION       77.57          3.597        0.989
  B100605              JUNCTION       77.53          3.167        0.000
  B100610              JUNCTION       77.53          2.968        3.092
  JCT-14               JUNCTION       74.30          0.000        0.000
  JCT-16               JUNCTION       78.00          0.000        0.000
  PRIVATE              JUNCTION       78.00          0.999        0.000
  
  
  *********************
  Node Flooding Summary
  *********************
  
  Flooding refers to all water that overflows a node, whether it ponds or not.
  --------------------------------------------------------------------------
                                                             Total   Maximum
                                 Maximum   Time of Max       Flood    Ponded
                        Hours       Rate    Occurrence      Volume     Depth
  Node                 Flooded       GPM   days hr:min    10^6 gal      Feet
  --------------------------------------------------------------------------
  B091735                 6.29    193.23      2  08:06       0.061     0.000
  B091750                 2.64     25.46      2  08:15       0.002     0.000
  B091845                 0.01     20.80      1  08:05       0.000     0.000
  B091930                 3.60    119.47      1  09:00       0.020     0.000
  B092080                76.05     59.98      0  08:17       0.110     0.000
  B092085                77.73   3115.64      2  09:00       6.300     0.000
  B092090                77.73    217.75      0  00:16       0.226     0.000
  B092120                76.99    147.34      2  09:00       0.269     0.000
  B092125                76.99     66.04      0  08:08       0.121     0.000
  B092135                77.16     56.18      2  09:00       0.102     0.000
  B092140                77.16     30.50      0  08:00       0.056     0.000
  B092145                77.16     30.49      2  09:00       0.056     0.000
  B092150                77.16     30.78      0  08:00       0.057     0.000
  B093310                76.47     60.21      0  08:14       0.110     0.000
  B100605                23.87    412.12      1  08:17       0.229     0.000
  JCT-14                 74.30    641.23      0  08:22       1.158     0.000
  JCT-16                 78.00     30.49      0  08:00       0.056     0.000
  PRIVATE                77.86     30.49      0  08:00       0.056     0.000
  
  
  ***********************
  Outfall Loading Summary
  ***********************
  
  -----------------------------------------------------------
                         Flow       Avg       Max       Total
                         Freq      Flow      Flow      Volume
  Outfall Node           Pcnt       GPM       GPM    10^6 gal
  -----------------------------------------------------------
  B100560               99.99    746.31   1434.81       3.179
  -----------------------------------------------------------
  System                99.99    746.31   1434.81       3.179
  
  
  ********************
  Link Flow Summary
  ********************
  
  -----------------------------------------------------------------------------
                                 Maximum  Time of Max   Maximum    Max/    Max/
                                  |Flow|   Occurrence   |Veloc|    Full    Full
  Link                 Type          GPM  days hr:min    ft/sec    Flow   Depth
  -----------------------------------------------------------------------------
  B090005B100570       CONDUIT   1047.88     1  09:00      3.37    0.17    0.36
  B090010B090005       CONDUIT   1017.44     1  09:00      4.46    0.18    0.28
  B090015B090010       CONDUIT    987.06     1  09:00      3.10    0.31    0.36
  B090020B090015       CONDUIT    956.91     1  09:00      3.56    0.20    0.32
  B090025B090020       CONDUIT    925.57     1  09:00      3.26    0.25    0.33
  B090030B090025       CONDUIT    249.09     1  09:00      1.46    0.07    0.23
  B090035B090030       CONDUIT    218.72     1  09:00      2.60    0.04    0.14
  B090040B090035       CONDUIT    188.36     1  09:00      2.13    0.05    0.15
  B090045B090040       CONDUIT    158.13     1  09:00      2.53    0.03    0.11
  B090050B090045       CONDUIT   3213.41     1  09:00      7.79    0.53    0.44
  B090055B090050       CONDUIT   2817.96     1  09:00      5.91    0.48    0.49
  B090060B090055       CONDUIT     60.97     0  08:58      2.91    0.14    0.63
  B090065B090060       CONDUIT     30.49     0  08:58      2.66    0.07    0.21
  B090070B090065       CONDUIT      0.00     0  00:00      0.00    0.00    0.09
  B091345B090055       CONDUIT   2728.02     1  09:00      3.34    1.33    0.78
  B091350B091345       CONDUIT   2698.06     1  09:00      3.43    0.50    0.75
  B091355B091350       CONDUIT   2668.05     1  09:00      4.80    0.60    0.55
  B091360B091355       CONDUIT   2638.21     1  09:00      7.54    1.25    0.97
  B091361B091360       CONDUIT   2607.86     1  09:00      8.52    0.71    1.00
  B091365B091361       CONDUIT   2577.63     1  09:00     11.69    0.62    0.78
  B091370B091365       CONDUIT   1753.26     1  09:00      5.91    2.00    0.78
  B091375B091370       CONDUIT   1722.85     1  09:00      4.89    1.74    1.00
  B091380B091375       CONDUIT   1692.50     1  09:00      4.80    1.26    1.00
  B091385B091380       CONDUIT   1662.79     2  09:00      4.72    1.15    1.00
  B091390B091385       CONDUIT   1637.33     1  09:00      6.43    0.74    0.85
  B091395B091390       CONDUIT   1606.19     1  09:00      6.88    0.76    0.67
  B091400B091395       CONDUIT   1576.84     1  09:00      6.63    0.75    0.65
  B091405B091400       CONDUIT   1547.37     1  09:00      6.29    0.80    0.67
  B091410B091405       CONDUIT   1518.00     1  09:00      4.78    1.35    0.85
  B091415B091410       CONDUIT    914.62     0  08:59      4.05    0.69    0.61
  B091420B091415       CONDUIT    701.21     0  08:59      5.97    0.28    0.49
  B091425B091420       CONDUIT    670.72     0  08:59     10.87    0.27    0.36
  B091430B091425       CONDUIT    640.24     1  08:59     12.55    0.28    0.36
  B091435B091430       CONDUIT    609.75     0  08:58      3.69    0.58    0.48
  B091440B091435       CONDUIT    579.26     0  08:59      2.77    0.61    0.57
  B091445B091440       CONDUIT     91.46     1  08:56      2.18    0.22    0.31
  B091450B091445       CONDUIT     60.98     0  08:25      1.68    0.16    0.29
  B091455B091450       CONDUIT     30.49     0  08:12      1.69    0.05    0.21
  B091475B091440       CONDUIT    457.31     0  08:52      2.32    0.56    0.55
  B091480B091475       CONDUIT    426.83     0  08:48      2.51    0.40    0.49
  B091485B091480       CONDUIT    213.41     1  08:36      2.82    0.48    0.49
  B091490B091485       CONDUIT     60.98     0  08:28      1.15    0.17    0.38
  B091495B091490       CONDUIT     30.49     0  08:13      1.58    0.03    0.20
  B091510B091410       CONDUIT    580.95     2  09:06      3.71    1.51    1.00
  B091515B091510       CONDUIT    524.77     1  09:00      3.35    1.28    1.00
  B091520B091515       CONDUIT    497.05     1  09:00      3.17    1.25    1.00
  B091525B091520       CONDUIT    413.42     1  09:00      2.64    1.00    1.00
  B091530B091525       CONDUIT    370.65     1  08:41      2.79    0.85    1.00
  B091535B091530       CONDUIT    245.18     1  08:41      2.80    0.32    1.00
  B091540B091545       CONDUIT     60.98     2  08:57      1.08    2.43    0.39
  B091545B091535       CONDUIT    213.41     0  08:53      6.42    0.24    0.67
  B091550B091545       CONDUIT    121.95     0  08:42      5.97    0.12    0.29
  B091555B091550       CONDUIT     91.46     2  08:43      2.14    0.22    0.32
  B091560B091555       CONDUIT     60.98     0  08:24      1.59    0.17    0.30
  B091565B091560       CONDUIT     30.49     0  08:08      1.55    0.03    0.19
  B091650B091485       CONDUIT    121.95     0  08:09      2.10    0.23    0.41
  B091655B091650       CONDUIT     91.46     0  08:08      2.85    0.08    0.26
  B091660B091655       CONDUIT     60.98     0  08:06      2.78    0.09    0.20
  B091665B091660       CONDUIT     30.49     0  08:05      2.26    0.03    0.17
  B091675B091480       CONDUIT    182.93     1  08:55      1.31    0.31    0.42
  B091680B091675       CONDUIT    121.95     1  08:23      4.12    0.13    0.24
  B091685B091680       CONDUIT     91.46     0  08:23      6.38    0.09    0.23
  B091690B091685       CONDUIT     60.98     0  08:11     14.09    0.03    0.16
  B091695B091690       CONDUIT     30.49     2  08:09     27.35    0.04    0.13
  B091705B091675       CONDUIT     30.49     0  08:29      3.91    0.02    0.24
  B091710B091540       CONDUIT     30.49     0  08:19      1.46    0.03    0.28
  B091715B091530       CONDUIT    115.95     2  10:02      2.45    0.15    1.00
  B091720B091715       CONDUIT     60.98     0  08:20      6.77    0.05    0.58
  B091725B091720       CONDUIT     30.49     0  08:11     16.66    0.03    0.13
  B091730B091365       CONDUIT    794.24     1  09:00      5.33    1.57    0.93
  B091735B091730       CONDUIT    767.89     1  09:00      4.90    1.98    1.00
  B091740B091735       CONDUIT    903.94     2  08:10      5.77    1.87    1.00
  B091745B091740       CONDUIT    873.44     0  08:06      5.57    2.08    1.00
  B091750B091745       CONDUIT    846.79     1  09:00      5.40    1.76    1.00
  B091755B091750       CONDUIT    396.34     1  09:00      4.37    0.25    0.67
  B091760B091755       CONDUIT    365.85     1  09:00      3.73    0.90    0.60
  B091765B091760       CONDUIT    304.87     1  09:00      2.41    0.75    0.75
  B091770B091765       CONDUIT    274.39     1  09:00      2.66    0.68    0.63
  B091775B091770       CONDUIT    213.41     1  09:00      2.36    0.53    0.56
  B091780B091775       CONDUIT    152.44     1  09:00      2.11    0.38    0.47
  B091785B091780       CONDUIT    121.95     1  09:00      2.08    0.30    0.40
  B091790B091785       CONDUIT     91.46     2  09:00      2.13    0.23    0.32
  B091795B091790       CONDUIT     60.98     0  08:35      5.38    0.08    0.26
  B091800B091795       CONDUIT     30.49     0  08:05      3.37    0.02    0.15
  B091805B091520       CONDUIT     60.98     2  08:55      2.34    0.11    0.22
  B091810B091805       CONDUIT     30.49     0  08:18      2.92    0.05    0.19
  B091815B091525       CONDUIT     30.49     1  08:40      1.50    0.08    0.19
  B091820B091415       CONDUIT    182.93     0  08:34      4.74    0.16    0.40
  B091825B091820       CONDUIT    121.95     0  08:27      7.35    0.12    0.25
  B091830B091825       CONDUIT     91.46     0  08:35      9.21    0.08    0.21
  B091835B091830       CONDUIT     30.49     0  08:17     16.03    0.02    0.15
  B091840B091830       CONDUIT     30.49     1  08:11     23.68    0.02    0.15
  B091845B091750       CONDUIT    430.45     2  08:15      4.19    0.68    1.00
  B091850B091845       CONDUIT    399.33     2  08:15      3.70    0.72    1.00
  B091855B091850       CONDUIT    367.64     2  08:15      4.90    0.51    1.00
  B091860B091855       CONDUIT    340.44     0  08:06      4.40    0.55    0.76
  B091865B091860       CONDUIT    152.44     0  08:21      2.34    0.25    0.44
  B091870B091865       CONDUIT    121.95     0  08:08      4.73    0.12    0.29
  B091875B091870       CONDUIT     91.46     0  08:07      4.35    0.05    0.19
  B091880B091875       CONDUIT     60.98     0  08:06      5.79    0.05    0.15
  B091885B091880       CONDUIT     30.50     2  08:04      1.87    0.06    0.16
  B091890B091510       CONDUIT     30.49     0  08:37      2.71    0.03    0.12
  B091895B091820       CONDUIT     30.49     0  08:41      1.44    0.08    0.23
  B091900B091860       CONDUIT    152.44     0  08:24      2.33    0.27    0.44
  B091905B091900       CONDUIT     60.98     0  08:22      2.20    0.04    0.25
  B091910B091905       CONDUIT     30.49     1  08:45      4.31    0.02    0.10
  B091915B091900       CONDUIT     60.98     2  08:17      5.64    0.03    0.12
  B091920B091915       CONDUIT     30.49     0  08:10     24.19    0.02    0.11
  B091925B091760       CONDUIT     30.49     2  08:44      3.95    0.02    0.10
  B091930B091750       CONDUIT    142.24     1  11:07      1.22    0.48    1.00
  B091935B091930       CONDUIT     91.46     0  08:30      3.21    0.10    0.61
  B091940B091935       CONDUIT     60.98     0  08:31      3.46    0.04    0.18
  B091945B091940       CONDUIT     30.49     1  08:40      1.75    0.08    0.17
  B091960B096050       CONDUIT    213.41     0  08:38      8.28    0.08    0.23
  B091965B091960       CONDUIT    182.93     1  08:45      7.37    0.10    0.22
  B091970B091965       CONDUIT    152.44     0  08:37      4.90    0.14    0.25
  B091975B091970       CONDUIT    121.95     1  08:53      2.33    0.29    0.37
  B091980B091975       CONDUIT     91.46     0  08:24      4.33    0.08    0.21
  B091985B091980       CONDUIT     60.98     1  08:22      4.05    0.05    0.15
  B091990B091985       CONDUIT     30.49     1  08:26      2.87    0.03    0.12
  B091995B090025       CONDUIT    646.29     1  09:00      4.28    1.91    0.92
  B092000B091995       CONDUIT    615.80     1  09:00      8.01    0.49    0.49
  B092005B092000       CONDUIT    585.31     2  09:00      6.96    0.55    0.53
  B092010B092005       CONDUIT    554.83     1  09:00      7.15    0.49    0.50
  B092015B092010       CONDUIT    524.34     0  09:00     11.30    0.24    0.34
  B092020B092015       CONDUIT    432.88     2  09:00      5.67    0.48    0.49
  B092025B092020       CONDUIT    366.84     2  09:00      3.89    0.64    0.58
  B092030B092025       CONDUIT    336.36     0  08:59      8.49    0.11    0.33
  B092035B092030       CONDUIT    305.87     1  09:00      5.80    0.29    0.37
  B092040B092035       CONDUIT    214.41     1  09:00      2.70    0.53    0.50
  B092045B092040       CONDUIT    183.92     2  09:00      5.03    0.11    0.30
  B092050B092045       CONDUIT    153.43     0  08:59      5.15    0.13    0.24
  B092055B092050       CONDUIT    122.94     1  09:00      2.27    0.32    0.38
  B092060B092055       CONDUIT     92.46     0  08:59      2.10    0.24    0.32
  B092065B092060       CONDUIT     61.97     0  08:27      6.80    0.02    0.14
  B092070B092065       CONDUIT     47.60     0  00:00    >50.00    0.02    0.09
  B092075B092070       CONDUIT      0.99     2  08:17      0.84    0.00    0.03
  B092080B092075       CONDUIT     29.49     0  08:17      7.20    0.00    0.51
  B092085B090045       CONDUIT   3085.28     1  09:00     28.96    0.18    0.64
  B092090B092085       CONDUIT    180.31     0  00:16      1.15    7.52    1.00
  B092095B092090       CONDUIT     91.46     0  08:35     11.88    0.01    0.53
  B092100B092095       CONDUIT     60.98     0  08:43      3.12    0.07    0.18
  B092105B092100       CONDUIT     30.49     0  08:12      3.45    0.04    0.16
  B092110B092020       CONDUIT     35.55     0  08:13      6.72    0.01    0.21
  B092115B092110       CONDUIT     12.87     0  00:00      4.19    0.01    0.05
  B092120B092115       CONDUIT    116.89     0  08:13     16.06    0.00    0.52
  B092125B092120       CONDUIT     16.22     0  01:00      0.39    0.65    1.00
  B092130B092125       CONDUIT     35.24     0  08:20      7.39    0.00    0.52
  B092135B092130       CONDUIT     25.74     0  08:20      4.98    0.00    0.52
  B092140B092135       CONDUIT     18.35     0  00:49      0.44    1.26    1.00
  B092145B092140       CONDUIT      7.81     0  00:49      0.31    0.53    1.00
  B092150B092140       CONDUIT      9.83     0  00:04      0.46    0.56    1.00
  B092160B092035       CONDUIT     60.98     0  08:32      4.60    0.04    0.14
  B092165B092160       CONDUIT     30.49     2  08:11      4.40    0.02    0.09
  B092170B092115       CONDUIT     91.46     1  08:44      5.92    0.05    0.15
  B092175B092170       CONDUIT     60.98     0  08:48      5.38    0.03    0.13
  B092180B092175       CONDUIT     30.49     0  08:10      4.93    0.01    0.08
  B092185B092130       CONDUIT     30.49     0  08:43      1.37    0.10    0.20
  B092190B092015       CONDUIT     60.98     2  08:26      2.27    0.11    0.23
  B092195B092190       CONDUIT     30.49     2  08:57      3.75    0.02    0.10
  B09233023            CONDUIT    610.74     0  08:22     16.47    0.00    0.52
  B092413B092330       CONDUIT    580.32     0  08:21     14.85    0.19    0.30
  B092415B092413       CONDUIT    549.89     0  08:21      4.36    1.26    0.76
  B092416B092415       CONDUIT    103.71     1  10:07      0.86    0.24    1.00
  B092418B092416       CONDUIT     62.13     1  08:09      1.99    0.08    0.60
  B092420B092418       CONDUIT     33.02     0  08:03      4.72    0.01    0.60
  B093240B092415       CONDUIT    427.59     1  09:00      3.65    0.34    0.70
  B093245B093240       CONDUIT    397.10     1  09:00     39.57    0.33    0.40
  B093250B093245       CONDUIT    366.62     2  09:00     15.97    0.51    0.47
  B093255B093250       CONDUIT    336.13     1  09:00      4.14    0.68    0.58
  B093260B093255       CONDUIT    305.64     1  09:00      3.05    0.67    0.61
  B093265B093260       CONDUIT    214.18     1  08:15      3.54    0.22    0.46
  B093275B093265       CONDUIT    183.69     1  08:15     10.78    0.27    0.34
  B093280B093275       CONDUIT    153.21     1  08:12      2.59    0.38    0.40
  B093285B093280       CONDUIT    122.72     0  08:19      4.35    0.17    0.36
  B093290B093285       CONDUIT     92.23     0  08:58      2.36    0.20    0.30
  B093295B093290       CONDUIT     61.74     1  08:45      2.02    0.14    0.25
  B093300B093295       CONDUIT     31.25     1  08:44      1.65    0.07    0.18
  B093305B093300       CONDUIT      0.77     1  08:43      0.66    0.00    0.03
  B093310B093305       CONDUIT     29.72     0  08:14      9.12    0.00    0.52
  B093345B093260       CONDUIT     60.97     2  09:00      1.62    0.20    0.29
  B093350B093345       CONDUIT     30.49     0  08:39      1.77    0.08    0.26
  B096045B090050       CONDUIT    365.85     0  08:58      3.07    0.95    0.71
  B096050B096045       CONDUIT    335.36     0  08:40      4.22    0.35    0.52
  B096055B096050       CONDUIT     91.46     0  08:20      4.70    0.05    0.21
  B096060B096055       CONDUIT     60.98     1  08:20      3.46    0.06    0.17
  B096065B096060       CONDUIT     30.49     0  08:27      2.56    0.04    0.13
  B096370B091775       CONDUIT     30.49     1  08:14      3.71    0.02    0.10
  B096375B091770       CONDUIT     30.49     2  08:48      3.41    0.02    0.11
  B100565B100560       CONDUIT   1434.81     1  09:00      3.38    0.28    0.34
  B100570B100565       CONDUIT   1404.52     1  09:00      5.86    0.07    0.28
  B100575B100570       CONDUIT    338.31     1  08:00      2.82    0.40    1.00
  B100580B100575       CONDUIT    330.69     0  00:24      2.11    0.79    1.00
  B100585B100580       CONDUIT    341.08     0  00:23      2.18    0.90    1.00
  B100590B100585       CONDUIT    357.89     0  00:23      1.48    0.24    1.00
  B100595B100590       CONDUIT    383.03     0  00:23      1.53    0.23    1.00
  B100600B100595       CONDUIT    478.56     0  00:22      1.63    0.28    1.00
  B100605B100600       CONDUIT    342.10     0  00:25      1.73    0.20    1.00
  B100610B100605       CONDUIT    310.82     0  00:28      1.28    0.35    1.00
  B100615B100610       CONDUIT    213.41     0  08:54      2.67    0.16    0.64
  B100620B100615       CONDUIT    182.93     0  08:58      3.19    0.44    0.39
  B100625B100620       CONDUIT    152.44     0  08:52      2.08    0.40    0.48
  B100630B100625       CONDUIT     60.98     0  08:42      3.55    0.10    0.33
  B100635B100630       CONDUIT     30.49     0  08:30      2.91    0.07    0.20
  B100650B100625       CONDUIT     60.98     1  08:40      2.20    0.12    0.23
  B100655B100650       CONDUIT     30.49     0  08:12     13.94    0.03    0.17
  B100685B100605       CONDUIT    274.39     1  09:00      3.51    0.23    0.66
  B100690B100685       CONDUIT    243.90     1  09:00     11.66    0.17    0.30
  B100695B100690       CONDUIT    152.44     1  09:00      1.66   10.55    0.57
  B100700B100695       CONDUIT     60.98     0  08:32      2.31    0.05    0.50
  B100705B100700       CONDUIT     30.49     1  08:41      1.57    0.09    0.18
  B100710B100695       CONDUIT     60.98     0  08:35      3.09    0.08    0.52
  B100715B100710       CONDUIT     30.49     0  08:13      7.45    0.03    0.16
  B100720B100690       CONDUIT     60.98     0  08:32      2.26    0.08    0.24
  B100725B100720       CONDUIT     30.49     0  08:12      8.61    0.03    0.16
  
  
  ***************************
  Flow Classification Summary
  ***************************
  
  -------------------------------------------------------------------------------------
                      Adjusted    ---------- Fraction of Time in Flow Class ---------- 
                       /Actual         Up    Down  Sub   Sup   Up    Down  Norm  Inlet 
  Conduit               Length    Dry  Dry   Dry   Crit  Crit  Crit  Crit  Ltd   Ctrl  
  -------------------------------------------------------------------------------------
  B090005B100570          1.00   0.00  0.00  0.00  0.99  0.00  0.00  0.01  0.99  0.00
  B090010B090005          1.00   0.00  0.00  0.00  0.00  0.00  0.00  1.00  0.00  0.00
  B090015B090010          1.00   0.00  0.00  0.00  0.00  0.00  0.00  1.00  0.00  0.00
  B090020B090015          1.00   0.00  0.00  0.00  0.00  0.34  0.00  0.66  0.32  0.00
  B090025B090020          1.00   0.00  0.00  0.00  0.00  0.00  0.00  1.00  0.00  0.00
  B090030B090025          1.00   0.00  0.00  0.00  1.00  0.00  0.00  0.00  0.95  0.00
  B090035B090030          1.00   0.00  0.00  0.00  0.00  0.00  0.00  1.00  0.00  0.00
  B090040B090035          1.00   0.00  0.00  0.00  0.00  0.00  0.00  1.00  0.00  0.00
  B090045B090040          1.00   0.00  0.00  0.00  0.00  0.00  0.00  1.00  0.00  0.00
  B090050B090045          1.00   0.00  0.00  0.00  0.00  1.00  0.00  0.00  0.00  0.00
  B090055B090050          1.00   0.00  0.00  0.00  0.00  0.00  0.00  1.00  0.00  0.00
  B090060B090055          1.00   0.00  0.00  0.00  1.00  0.00  0.00  0.00  1.00  0.00
  B090065B090060          1.00   0.00  0.00  0.00  1.00  0.00  0.00  0.00  1.00  0.00
  B090070B090065          1.00   0.00  1.00  0.00  0.00  0.00  0.00  0.00  0.00  0.00
  B091345B090055          1.00   0.00  0.00  0.00  0.00  0.00  1.00  0.00  0.00  0.00
  B091350B091345          1.00   0.00  0.00  0.00  1.00  0.00  0.00  0.00  1.00  0.00
  B091355B091350          1.00   0.00  0.00  0.00  0.00  0.00  0.00  1.00  0.00  0.00
  B091360B091355          1.00   0.00  0.00  0.00  0.00  0.00  0.00  1.00  0.00  0.00
  B091361B091360          2.90   0.00  0.00  0.00  0.02  0.98  0.00  0.00  0.97  0.00
  B091365B091361          8.56   0.00  0.00  0.00  0.00  1.00  0.00  0.00  1.00  0.00
  B091370B091365          1.60   0.00  0.00  0.00  0.05  0.95  0.00  0.00  0.00  0.00
  B091375B091370          1.45   0.00  0.00  0.00  1.00  0.00  0.00  0.00  0.18  0.00
  B091380B091375          1.14   0.00  0.00  0.00  1.00  0.00  0.00  0.00  0.85  0.00
  B091385B091380          1.00   0.00  0.00  0.00  0.15  0.85  0.00  0.00  0.92  0.00
  B091390B091385          1.00   0.00  0.00  0.00  0.08  0.92  0.00  0.00  0.97  0.00
  B091395B091390          1.00   0.00  0.00  0.00  0.00  1.00  0.00  0.00  0.03  0.00
  B091400B091395          1.00   0.00  0.00  0.00  0.00  1.00  0.00  0.00  0.99  0.00
  B091405B091400          1.00   0.00  0.00  0.00  0.00  1.00  0.00  0.00  0.00  0.00
  B091410B091405          1.00   0.00  0.00  0.00  0.19  0.81  0.00  0.00  0.00  0.00
  B091415B091410          1.00   0.00  0.00  0.00  0.00  0.00  0.00  1.00  0.00  0.00
  B091420B091415          1.00   0.00  0.00  0.00  0.00  1.00  0.00  0.00  1.00  0.00
  B091425B091420          1.00   0.00  0.00  0.00  0.00  1.00  0.00  0.00  1.00  0.00
  B091430B091425          1.00   0.00  0.00  0.00  0.00  1.00  0.00  0.00  0.00  0.00
  B091435B091430          1.00   0.00  0.00  0.00  0.00  1.00  0.00  0.00  0.00  0.00
  B091440B091435          1.00   0.00  0.00  0.00  1.00  0.00  0.00  0.00  1.00  0.00
  B091445B091440          1.00   0.00  0.00  0.00  0.00  0.00  0.00  1.00  0.00  0.00
  B091450B091445          1.00   0.00  0.00  0.00  1.00  0.00  0.00  0.00  1.00  0.00
  B091455B091450          1.00   0.00  0.00  0.00  1.00  0.00  0.00  0.00  1.00  0.00
  B091475B091440          1.00   0.00  0.00  0.00  1.00  0.00  0.00  0.00  1.00  0.00
  B091480B091475          1.00   0.00  0.00  0.00  1.00  0.00  0.00  0.00  1.00  0.00
  B091485B091480          1.00   0.00  0.00  0.00  0.00  0.00  0.00  1.00  0.00  0.00
  B091490B091485          1.27   0.00  0.00  0.00  1.00  0.00  0.00  0.00  1.00  0.00
  B091495B091490          1.00   0.00  0.00  0.00  1.00  0.00  0.00  0.00  1.00  0.00
  B091510B091410          1.00   0.00  0.00  0.00  1.00  0.00  0.00  0.00  0.85  0.00
  B091515B091510          1.00   0.00  0.00  0.00  1.00  0.00  0.00  0.00  0.85  0.00
  B091520B091515          1.00   0.00  0.00  0.00  1.00  0.00  0.00  0.00  0.86  0.00
  B091525B091520          1.00   0.00  0.00  0.00  1.00  0.00  0.00  0.00  0.90  0.00
  B091530B091525          1.00   0.00  0.00  0.00  1.00  0.00  0.00  0.00  0.91  0.00
  B091535B091530          1.00   0.00  0.00  0.00  0.34  0.66  0.00  0.00  0.93  0.00
  B091540B091545          1.00   0.00  0.00  0.00  1.00  0.00  0.00  0.00  0.00  0.00
  B091545B091535          1.00   0.00  0.00  0.00  0.07  0.93  0.00  0.00  1.00  0.00
  B091550B091545          1.00   0.00  0.00  0.00  0.00  1.00  0.00  0.00  1.00  0.00
  B091555B091550          1.00   0.00  0.00  0.00  0.00  0.00  0.00  1.00  0.00  0.00
  B091560B091555          1.00   0.00  0.00  0.00  1.00  0.00  0.00  0.00  1.00  0.00
  B091565B091560          1.00   0.00  0.01  0.00  0.99  0.00  0.00  0.00  0.99  0.00
  B091650B091485          1.04   0.00  0.00  0.00  1.00  0.00  0.00  0.00  1.00  0.00
  B091655B091650          1.00   0.00  0.00  0.00  0.00  1.00  0.00  0.00  1.00  0.00
  B091660B091655          1.00   0.00  0.00  0.00  0.00  1.00  0.00  0.00  0.00  0.00
  B091665B091660          1.24   0.00  0.00  0.00  0.01  0.99  0.00  0.00  1.00  0.00
  B091675B091480          1.00   0.00  0.00  0.00  1.00  0.00  0.00  0.00  0.81  0.00
  B091680B091675          2.01   0.00  0.00  0.00  0.00  0.00  0.00  1.00  0.00  0.00
  B091685B091680          1.00   0.00  0.00  0.00  0.00  1.00  0.00  0.00  1.00  0.00
  B091690B091685          3.16   0.00  0.00  0.00  0.00  1.00  0.00  0.00  1.00  0.00
  B091695B091690          1.00   0.00  0.00  0.00  0.00  1.00  0.00  0.00  0.00  0.00
  B091705B091675          1.00   0.00  0.00  0.00  1.00  0.00  0.00  0.00  1.00  0.00
  B091710B091540          1.00   0.00  0.00  0.00  1.00  0.00  0.00  0.00  1.00  0.00
  B091715B091530          1.00   0.00  0.00  0.00  1.00  0.00  0.00  0.00  0.94  0.00
  B091720B091715          1.00   0.00  0.00  0.00  0.06  0.94  0.00  0.00  1.00  0.00
  B091725B091720          1.00   0.00  0.00  0.00  0.00  1.00  0.00  0.00  1.00  0.00
  B091730B091365          1.00   0.00  0.00  0.00  0.17  0.83  0.00  0.00  0.00  0.00
  B091735B091730          1.00   0.00  0.00  0.00  0.13  0.00  0.00  0.87  0.00  0.00
  B091740B091735          1.00   0.00  0.00  0.00  1.00  0.00  0.00  0.00  0.71  0.00
  B091745B091740          1.04   0.00  0.00  0.00  0.96  0.04  0.00  0.00  0.00  0.00
  B091750B091745          1.00   0.00  0.00  0.00  0.97  0.03  0.00  0.00  0.72  0.00
  B091755B091750          1.00   0.00  0.00  0.00  1.00  0.00  0.00  0.00  1.00  0.00
  B091760B091755          1.00   0.00  0.00  0.00  0.00  1.00  0.00  0.00  0.00  0.00
  B091765B091760          1.00   0.00  0.00  0.00  1.00  0.00  0.00  0.00  1.00  0.00
  B091770B091765          1.00   0.00  0.00  0.00  1.00  0.00  0.00  0.00  1.00  0.00
  B091775B091770          1.00   0.00  0.00  0.00  1.00  0.00  0.00  0.00  1.00  0.00
  B091780B091775          1.00   0.00  0.00  0.00  1.00  0.00  0.00  0.00  1.00  0.00
  B091785B091780          1.00   0.00  0.00  0.00  1.00  0.00  0.00  0.00  1.00  0.00
  B091790B091785          1.00   0.00  0.00  0.00  0.00  0.00  0.00  1.00  0.00  0.00
  B091795B091790          1.00   0.00  0.00  0.00  0.99  0.01  0.00  0.00  1.00  0.00
  B091800B091795          1.55   0.00  0.00  0.00  0.00  1.00  0.00  0.00  1.00  0.00
  B091805B091520          1.00   0.00  0.00  0.00  0.00  0.00  0.00  1.00  0.00  0.00
  B091810B091805          1.00   0.00  0.00  0.00  1.00  0.00  0.00  0.00  1.00  0.00
  B091815B091525          1.00   0.00  0.00  0.00  0.00  0.00  0.00  1.00  0.00  0.00
  B091820B091415          1.64   0.00  0.00  0.00  0.00  0.28  0.00  0.72  0.28  0.00
  B091825B091820          1.00   0.00  0.00  0.00  0.00  1.00  0.00  0.00  1.00  0.00
  B091830B091825          1.00   0.00  0.00  0.00  0.00  1.00  0.00  0.00  1.00  0.00
  B091835B091830          1.00   0.00  0.00  0.00  0.00  1.00  0.00  0.00  1.00  0.00
  B091840B091830          1.00   0.00  0.00  0.00  0.00  1.00  0.00  0.00  1.00  0.00
  B091845B091750          1.00   0.00  0.00  0.00  1.00  0.00  0.00  0.00  0.87  0.00
  B091850B091845          1.00   0.00  0.00  0.00  0.11  0.89  0.00  0.00  0.06  0.00
  B091855B091850          1.00   0.00  0.00  0.00  0.08  0.92  0.00  0.00  0.95  0.00
  B091860B091855          1.00   0.00  0.00  0.00  0.04  0.96  0.00  0.00  0.04  0.00
  B091865B091860          1.00   0.00  0.00  0.00  1.00  0.00  0.00  0.00  1.00  0.00
  B091870B091865          1.00   0.00  0.00  0.00  0.00  1.00  0.00  0.00  1.00  0.00
  B091875B091870          1.00   0.00  0.00  0.00  0.00  1.00  0.00  0.00  1.00  0.00
  B091880B091875          1.00   0.00  0.00  0.00  0.00  1.00  0.00  0.00  0.00  0.00
  B091885B091880          1.00   0.00  0.00  0.00  0.00  1.00  0.00  0.00  0.00  0.00
  B091890B091510          1.00   0.00  0.00  0.00  0.00  0.00  0.00  1.00  0.00  0.00
  B091895B091820          1.00   0.00  0.00  0.00  1.00  0.00  0.00  0.00  1.00  0.00
  B091900B091860          1.09   0.00  0.00  0.00  1.00  0.00  0.00  0.00  1.00  0.00
  B091905B091900          1.00   0.00  0.00  0.00  0.48  0.52  0.00  0.00  1.00  0.00
  B091910B091905          1.00   0.00  0.00  0.00  0.00  0.00  0.00  1.00  0.00  0.00
  B091915B091900          1.04   0.00  0.00  0.00  0.00  0.00  0.00  1.00  0.00  0.00
  B091920B091915          1.00   0.00  0.00  0.00  0.00  1.00  0.00  0.00  1.00  0.00
  B091925B091760          1.33   0.00  0.00  0.00  0.00  0.00  0.00  1.00  0.00  0.00
  B091930B091750          1.00   0.00  0.00  0.00  1.00  0.00  0.00  0.00  0.36  0.00
  B091935B091930          1.00   0.00  0.00  0.00  0.20  0.03  0.00  0.77  0.23  0.00
  B091940B091935          1.00   0.00  0.00  0.00  0.00  1.00  0.00  0.00  1.00  0.00
  B091945B091940          1.00   0.00  0.00  0.00  0.10  0.90  0.00  0.00  0.00  0.00
  B091960B096050          2.21   0.00  0.00  0.00  0.00  0.23  0.00  0.77  0.19  0.00
  B091965B091960          1.85   0.00  0.00  0.00  0.00  0.00  0.00  1.00  0.00  0.00
  B091970B091965          1.00   0.00  0.00  0.00  0.00  0.00  0.00  1.00  0.00  0.00
  B091975B091970          1.00   0.00  0.00  0.00  0.00  0.00  0.00  1.00  0.00  0.00
  B091980B091975          1.00   0.00  0.00  0.00  0.00  0.08  0.00  0.92  0.08  0.00
  B091985B091980          1.00   0.00  0.00  0.00  0.00  0.00  0.00  1.00  0.00  0.00
  B091990B091985          1.00   0.00  0.00  0.00  0.00  0.00  0.00  1.00  0.00  0.00
  B091995B090025          1.00   0.00  0.00  0.00  0.00  0.00  0.00  1.00  0.00  0.00
  B092000B091995          1.26   0.00  0.00  0.00  0.00  0.00  0.00  1.00  0.00  0.00
  B092005B092000          1.00   0.00  0.00  0.00  0.00  0.00  0.00  1.00  0.00  0.00
  B092010B092005          1.00   0.00  0.00  0.00  0.00  0.00  0.00  1.00  0.00  0.00
  B092015B092010          2.63   0.00  0.00  0.00  0.00  0.04  0.00  0.96  0.04  0.00
  B092020B092015          1.00   0.00  0.00  0.00  0.00  0.00  0.00  1.00  0.00  0.00
  B092025B092020          3.33   0.00  0.00  0.00  0.00  0.00  0.00  1.00  0.00  0.00
  B092030B092025          8.35   0.00  0.00  0.00  0.00  0.76  0.00  0.24  0.72  0.00
  B092035B092030          1.00   0.00  0.00  0.00  0.00  0.00  0.00  1.00  0.00  0.00
  B092040B092035          1.00   0.00  0.00  0.00  0.00  0.00  0.00  1.00  0.00  0.00
  B092045B092040          1.75   0.00  0.00  0.00  0.00  0.67  0.00  0.33  0.64  0.00
  B092050B092045          1.11   0.00  0.00  0.00  0.00  0.00  0.00  1.00  0.00  0.00
  B092055B092050          1.00   0.00  0.00  0.00  0.00  0.00  0.00  1.00  0.00  0.00
  B092060B092055          1.00   0.00  0.00  0.00  0.00  0.00  0.00  1.00  0.00  0.00
  B092065B092060          6.11   0.00  0.00  0.00  0.00  0.34  0.00  0.66  0.31  0.00
  B092070B092065          1.01   0.00  0.00  0.00  0.00  0.00  0.00  1.00  0.00  0.00
  B092075B092070          1.00   0.00  0.00  0.00  0.00  0.00  0.00  1.00  0.00  0.00
  B092080B092075         10.15   0.00  0.00  0.00  1.00  0.00  0.00  0.00  1.00  0.00
  B092085B090045          8.75   0.00  0.00  0.00  0.00  1.00  0.00  0.00  1.00  0.00
  B092090B092085          1.00   0.00  0.00  0.00  1.00  0.00  0.00  0.00  0.00  0.00
  B092095B092090          2.92   0.00  0.00  0.00  1.00  0.00  0.00  0.00  1.00  0.00
  B092100B092095          1.00   0.00  0.00  0.00  0.00  0.00  0.00  1.00  0.00  0.00
  B092105B092100          1.00   0.00  0.00  0.00  0.00  1.00  0.00  0.00  1.00  0.00
  B092110B092020          3.98   0.00  0.00  0.00  0.08  0.87  0.00  0.05  0.95  0.00
  B092115B092110          1.00   0.00  0.00  0.00  0.00  0.00  0.00  1.00  0.00  0.00
  B092120B092115         42.75   0.00  0.00  0.00  1.00  0.00  0.00  0.00  1.00  0.00
  B092125B092120          1.00   0.00  0.00  0.00  1.00  0.00  0.00  0.00  0.00  0.00
  B092130B092125         13.05   0.00  0.00  0.00  1.00  0.00  0.00  0.00  1.00  0.00
  B092135B092130          5.15   0.00  0.00  0.00  1.00  0.00  0.00  0.00  1.00  0.00
  B092140B092135          1.00   0.00  0.00  0.00  1.00  0.00  0.00  0.00  0.00  0.00
  B092145B092140          1.00   0.00  0.00  0.00  1.00  0.00  0.00  0.00  0.00  0.00
  B092150B092140          1.00   0.00  0.00  0.00  1.00  0.00  0.00  0.00  0.00  0.00
  B092160B092035          1.00   0.00  0.00  0.00  0.00  0.00  0.00  1.00  0.00  0.00
  B092165B092160          1.00   0.00  0.00  0.00  0.00  0.00  0.00  1.00  0.00  0.00
  B092170B092115          1.88   0.00  0.00  0.00  0.00  0.00  0.00  1.00  0.00  0.00
  B092175B092170          1.00   0.00  0.00  0.00  0.00  0.00  0.00  1.00  0.00  0.00
  B092180B092175          3.03   0.00  0.00  0.00  0.00  0.00  0.00  1.00  0.00  0.00
  B092185B092130          1.00   0.00  0.00  0.00  0.00  0.00  0.00  1.00  0.00  0.00
  B092190B092015          1.00   0.00  0.00  0.00  0.00  0.00  0.00  1.00  0.00  0.00
  B092195B092190          1.00   0.00  0.00  0.00  0.00  0.00  0.00  1.00  0.00  0.00
  B09233023             113.96   0.00  0.00  0.00  0.99  0.01  0.00  0.00  1.00  0.00
  B092413B092330          6.02   0.00  0.00  0.00  0.00  1.00  0.00  0.00  0.00  0.00
  B092415B092413          1.00   0.00  0.00  0.00  0.04  0.96  0.00  0.00  0.00  0.00
  B092416B092415          1.00   0.00  0.00  0.00  1.00  0.00  0.00  0.00  0.92  0.00
  B092418B092416          1.00   0.00  0.03  0.00  0.97  0.00  0.00  0.00  0.97  0.00
  B092420B092418         29.09   0.00  0.00  0.00  1.00  0.00  0.00  0.00  0.03  0.00
  B093240B092415          1.00   0.00  0.00  0.00  0.09  0.91  0.00  0.00  1.00  0.00
  B093245B093240          1.00   0.00  0.00  0.00  0.00  1.00  0.00  0.00  0.98  0.00
  B093250B093245          1.00   0.00  0.00  0.00  0.00  1.00  0.00  0.00  0.00  0.00
  B093255B093250          1.00   0.00  0.00  0.00  0.00  1.00  0.00  0.00  0.00  0.00
  B093260B093255          1.00   0.00  0.00  0.00  0.28  0.72  0.00  0.00  1.00  0.00
  B093265B093260          1.00   0.00  0.00  0.00  0.00  1.00  0.00  0.00  1.00  0.00
  B093275B093265          1.00   0.00  0.00  0.00  0.00  1.00  0.00  0.00  0.00  0.00
  B093280B093275          1.00   0.00  0.00  0.00  0.05  0.95  0.00  0.00  0.00  0.00
  B093285B093280          1.00   0.00  0.00  0.00  0.28  0.72  0.00  0.00  1.00  0.00
  B093290B093285          1.03   0.00  0.00  0.00  0.00  1.00  0.00  0.00  0.00  0.00
  B093295B093290          1.00   0.00  0.00  0.00  0.00  0.00  0.00  1.00  0.00  0.00
  B093300B093295          1.40   0.00  0.00  0.00  0.00  0.00  0.00  1.00  0.00  0.00
  B093305B093300          1.00   0.00  0.00  0.00  0.04  0.04  0.00  0.92  0.00  0.00
  B093310B093305          7.84   0.00  0.00  0.00  1.00  0.00  0.00  0.00  1.00  0.00
  B093345B093260          1.00   0.00  0.00  0.00  0.00  0.00  0.00  1.00  0.00  0.00
  B093350B093345          1.00   0.00  0.00  0.00  1.00  0.00  0.00  0.00  1.00  0.00
  B096045B090050          1.00   0.00  0.00  0.00  0.00  0.00  0.00  1.00  0.00  0.00
  B096050B096045          1.00   0.00  0.00  0.00  0.00  0.68  0.00  0.32  0.68  0.00
  B096055B096050          1.00   0.00  0.00  0.00  0.00  0.42  0.00  0.58  0.42  0.00
  B096060B096055          1.00   0.00  0.00  0.00  0.00  0.00  0.00  1.00  0.00  0.00
  B096065B096060          1.00   0.00  0.00  0.00  0.00  0.00  0.00  1.00  0.00  0.00
  B096370B091775          1.00   0.00  0.00  0.00  0.00  0.00  0.00  1.00  0.00  0.00
  B096375B091770          1.00   0.00  0.00  0.00  0.00  0.00  0.00  1.00  0.00  0.00
  B100565B100560          1.00   0.00  0.00  0.00  1.00  0.00  0.00  0.00  0.00  0.00
  B100570B100565          2.17   0.00  0.01  0.00  0.00  0.99  0.00  0.00  0.99  0.00
  B100575B100570          1.00   0.00  0.00  0.00  1.00  0.00  0.00  0.00  0.00  0.00
  B100580B100575          1.00   0.00  0.00  0.00  1.00  0.00  0.00  0.00  0.00  0.00
  B100585B100580          1.00   0.00  0.00  0.00  1.00  0.00  0.00  0.00  0.00  0.00
  B100590B100585          1.00   0.00  0.00  0.00  1.00  0.00  0.00  0.00  0.00  0.00
  B100595B100590          1.00   0.00  0.00  0.00  1.00  0.00  0.00  0.00  0.00  0.00
  B100600B100595          1.00   0.00  0.00  0.00  1.00  0.00  0.00  0.00  0.00  0.00
  B100605B100600          1.00   0.00  0.00  0.00  1.00  0.00  0.00  0.00  0.00  0.00
  B100610B100605          1.00   0.00  0.00  0.00  1.00  0.00  0.00  0.00  0.00  0.00
  B100615B100610          1.00   0.00  0.00  0.00  0.99  0.01  0.00  0.00  1.00  0.00
  B100620B100615          1.00   0.00  0.00  0.00  0.00  1.00  0.00  0.00  0.00  0.00
  B100625B100620          1.00   0.00  0.00  0.00  1.00  0.00  0.00  0.00  1.00  0.00
  B100630B100625          1.00   0.00  0.00  0.00  1.00  0.00  0.00  0.00  1.00  0.00
  B100635B100630          1.00   0.00  0.00  0.00  1.00  0.00  0.00  0.00  1.00  0.00
  B100650B100625          1.00   0.00  0.00  0.00  0.00  0.00  0.00  1.00  0.00  0.00
  B100655B100650          1.00   0.00  0.00  0.00  0.55  0.45  0.00  0.00  1.00  0.00
  B100685B100605          1.00   0.00  0.00  0.00  1.00  0.00  0.00  0.00  1.00  0.00
  B100690B100685          1.00   0.00  0.00  0.00  0.00  1.00  0.00  0.00  1.00  0.00
  B100695B100690          1.00   0.00  0.00  0.00  1.00  0.00  0.00  0.00  0.00  0.00
  B100700B100695          1.00   0.00  0.00  0.00  1.00  0.00  0.00  0.00  1.00  0.00
  B100705B100700          1.00   0.00  0.00  0.00  1.00  0.00  0.00  0.00  0.00  0.00
  B100710B100695          1.00   0.00  0.00  0.00  1.00  0.00  0.00  0.00  1.00  0.00
  B100715B100710          1.00   0.00  0.00  0.00  0.01  0.99  0.00  0.00  1.00  0.00
  B100720B100690          1.00   0.00  0.00  0.00  0.04  0.96  0.00  0.00  1.00  0.00
  B100725B100720          1.00   0.00  0.00  0.00  0.00  1.00  0.00  0.00  1.00  0.00
  
  
  *************************
  Conduit Surcharge Summary
  *************************
  
  ----------------------------------------------------------------------------
                                                           Hours        Hours 
                         --------- Hours Full --------   Above Full   Capacity
  Conduit                Both Ends  Upstream  Dnstream   Normal Flow   Limited
  ----------------------------------------------------------------------------
  B090060B090055              0.01      0.01     11.17      0.01         0.01
  B091345B090055              0.01      0.01      6.26      9.11         0.01
  B091350B091345              0.01      0.01      5.12      0.01         0.01
  B091360B091355              0.01      6.15      0.01      6.84         0.01
  B091361B091360              1.55      1.55      6.15      0.01         0.01
  B091365B091361              0.01      0.01      1.55      0.01         0.01
  B091370B091365              0.01      6.81      0.01     20.79         0.01
  B091375B091370              6.81      7.64      6.81     15.19         6.81
  B091380B091375              6.88      6.88      7.64      6.41         6.37
  B091385B091380              5.81      5.81      6.88      5.40         5.38
  B091390B091385              0.01      0.01      5.81      0.01         0.01
  B091410B091405              0.01      6.42      0.01      6.71         0.01
  B091510B091410             11.53     11.53     18.13     11.39        11.36
  B091515B091510             10.17     10.17     11.53      7.07         7.08
  B091520B091515              8.14      8.14     10.17      6.64         6.63
  B091525B091520              7.46      7.46      8.14      0.02         0.02
  B091530B091525              6.36      6.36      7.46      0.01         0.01
  B091535B091530              4.87      4.87      6.36      0.01         0.01
  B091540B091545              0.01      0.01      0.01     24.30         0.01
  B091545B091535              0.01      0.01      4.87      0.01         0.01
  B091715B091530              2.07      2.07      6.36      0.01         0.01
  B091720B091715              0.01      0.01      2.07      0.01         0.01
  B091730B091365              0.01     22.88      0.01     21.79         0.01
  B091735B091730              9.69     24.39      9.69     36.23         9.69
  B091740B091735             22.17     22.17     24.39     21.02        21.00
  B091745B091740             22.17     22.26     22.17     24.73        22.17
  B091750B091745             21.05     21.05     22.26     20.64        20.64
  B091755B091750              0.01      0.01     21.05      0.01         0.01
  B091845B091750              6.40      6.40     21.05      0.01         0.01
  B091850B091845              5.83      5.83      6.40      0.01         0.01
  B091855B091850              2.38      2.38      5.84      0.01         0.01
  B091860B091855              0.01      0.01      2.38      0.01         0.01
  B091930B091750             20.70     20.70     21.05      0.01         0.01
  B091935B091930              0.01      0.01     13.47      0.01         0.01
  B091995B090025              0.01     11.77      0.01     17.98         0.01
  B092080B092075              0.01      0.01     76.17      0.01         0.01
  B092085B090045              0.01      0.01     77.73      0.01         0.01
  B092090B092085             77.73     77.73     77.73      0.24         0.01
  B092095B092090              0.01      0.01     77.73      0.01         0.01
  B092120B092115              0.01      0.01     77.01      0.01         0.01
  B092125B092120             77.01     77.01     77.01      0.01         0.01
  B092130B092125              0.01      0.01     77.01      0.01         0.01
  B092135B092130              0.01      0.01     77.17      0.01         0.01
  B092140B092135             77.17     77.17     77.17      0.17         0.01
  B092145B092140             77.17     77.17     77.17      0.01         0.01
  B092150B092140             77.17     77.17     77.17      0.01         0.01
  B09233023                   0.01      0.01     74.30      0.01         0.01
  B092415B092413              0.01      6.20      0.01      5.89         0.01
  B092416B092415              5.50      5.50      6.20      0.01         0.01
  B092418B092416              0.01      0.01      5.50      0.01         0.01
  B092420B092418              0.01      0.01     77.69      0.01         0.01
  B093240B092415              0.01      0.01      6.20      0.01         0.01
  B093310B093305              0.01      0.01     76.58      0.01         0.01
  B100575B100570             62.57     62.57     77.83      0.01         0.01
  B100580B100575             77.80     77.80     77.83      0.01         0.01
  B100585B100580             77.76     77.76     77.80      0.01         0.01
  B100590B100585             77.66     77.66     77.69      0.01         0.01
  B100595B100590             77.61     77.61     77.65      0.01         0.01
  B100600B100595             77.57     77.57     77.61      0.01         0.01
  B100605B100600             77.53     77.53     77.57      0.01         0.01
  B100610B100605             77.53     77.53     77.57      0.01         0.01
  B100615B100610              0.01      0.01     77.54      0.01         0.01
  B100685B100605              0.01      0.01     77.61      0.01         0.01
  B100695B100690              0.01      0.01      0.01     77.85         0.01
  

  Analysis begun on:  Wed Jun 24 14:44:38 2026
  Analysis ended on:  Wed Jun 24 14:44:41 2026
  Total elapsed time: 00:00:03