
  EPA STORM WATER MANAGEMENT MODEL - VERSION 5.2 (Build 5.2.4)
  ------------------------------------------------------------

  
  ERROR 209: undefined object 1120 at line 9837 of [CONDUIT] section:
  5103	1122	1120	212.381106	0.013000	0.000000	0.000000	0.000000	0.000000

  
  ERROR 209: undefined object 1120 at line 9839 of [CONDUIT] section:
  5107	1120	ORCHARD_WW	36.331580	0.013000	0.000000	0.100000	0.000000	0.000000

  
  ERROR 211: invalid number  at line 15694 of [XSECT] section:
  4257	CIRCULAR	0.000000	0.000000	0.000000	0.000000	1	0

  
  ERROR 211: invalid number  at line 19544 of [XSECT] section:
  K0239-LIFTSTATION	CIRCULAR	0.000000	0.000000	0.000000	0.000000	1	0


  Analysis begun on:  Wed Jun 24 14:44:43 2026
  Analysis ended on:  Wed Jun 24 14:44:43 2026
  Total elapsed time: < 1 sec