
  EPA STORM WATER MANAGEMENT MODEL - VERSION 5.2 (Build 5.2.4)
  ------------------------------------------------------------

  WARNING 04: minimum elevation drop used for Conduit 1307741
  WARNING 04: minimum elevation drop used for Conduit 1307744
  WARNING 04: minimum elevation drop used for Conduit 132963
  WARNING 04: minimum elevation drop used for Conduit 132964
  WARNING 04: minimum elevation drop used for Conduit 132966
  WARNING 04: minimum elevation drop used for Conduit 21179
  WARNING 04: minimum elevation drop used for Conduit 22010
  WARNING 04: minimum elevation drop used for Conduit 25621
  WARNING 04: minimum elevation drop used for Conduit 25686
  WARNING 04: minimum elevation drop used for Conduit 25700
  WARNING 04: minimum elevation drop used for Conduit 3452765
  WARNING 04: minimum elevation drop used for Conduit 3452766
  WARNING 04: minimum elevation drop used for Conduit 3452783
  WARNING 04: minimum elevation drop used for Conduit 3452802
  WARNING 04: minimum elevation drop used for Conduit 3452803
  WARNING 04: minimum elevation drop used for Conduit 3453111
  WARNING 04: minimum elevation drop used for Conduit 3453112
  WARNING 04: minimum elevation drop used for Conduit 3453117
  WARNING 04: minimum elevation drop used for Conduit 3453118
  WARNING 04: minimum elevation drop used for Conduit 3453119
  WARNING 04: minimum elevation drop used for Conduit 3453129
  WARNING 04: minimum elevation drop used for Conduit 3453130
  WARNING 04: minimum elevation drop used for Conduit 3453148
  WARNING 04: minimum elevation drop used for Conduit 3453149
  WARNING 04: minimum elevation drop used for Conduit 3453160
  WARNING 04: minimum elevation drop used for Conduit 3453161
  WARNING 04: minimum elevation drop used for Conduit 3453166
  WARNING 04: minimum elevation drop used for Conduit 3453167
  WARNING 04: minimum elevation drop used for Conduit 3453177
  WARNING 04: minimum elevation drop used for Conduit 3453181
  WARNING 04: minimum elevation drop used for Conduit 3453191
  WARNING 04: minimum elevation drop used for Conduit 3453192
  WARNING 04: minimum elevation drop used for Conduit 3453206
  WARNING 04: minimum elevation drop used for Conduit 3453207
  WARNING 04: minimum elevation drop used for Conduit 3453214
  WARNING 04: minimum elevation drop used for Conduit 3453215
  WARNING 04: minimum elevation drop used for Conduit 3453221
  WARNING 04: minimum elevation drop used for Conduit 3453222
  WARNING 04: minimum elevation drop used for Conduit 3453236
  WARNING 04: minimum elevation drop used for Conduit 3453248
  WARNING 04: minimum elevation drop used for Conduit 3453249
  WARNING 04: minimum elevation drop used for Conduit 3453297
  WARNING 04: minimum elevation drop used for Conduit 3453337
  WARNING 04: minimum elevation drop used for Conduit 3453453
  WARNING 04: minimum elevation drop used for Conduit 3453457
  WARNING 04: minimum elevation drop used for Conduit 3453458
  WARNING 04: minimum elevation drop used for Conduit 3453468
  WARNING 04: minimum elevation drop used for Conduit 3453469
  WARNING 04: minimum elevation drop used for Conduit 3453475
  WARNING 04: minimum elevation drop used for Conduit 3453476
  WARNING 04: minimum elevation drop used for Conduit 3453480
  WARNING 04: minimum elevation drop used for Conduit 3453481
  WARNING 04: minimum elevation drop used for Conduit 3453486
  WARNING 04: minimum elevation drop used for Conduit 3453487
  WARNING 04: minimum elevation drop used for Conduit 3453492
  WARNING 04: minimum elevation drop used for Conduit 3453493
  WARNING 04: minimum elevation drop used for Conduit 3453498
  WARNING 04: minimum elevation drop used for Conduit 3453499
  WARNING 04: minimum elevation drop used for Conduit 3453504
  WARNING 04: minimum elevation drop used for Conduit 3453505
  WARNING 04: minimum elevation drop used for Conduit 3453524
  WARNING 04: minimum elevation drop used for Conduit 3453525
  WARNING 04: minimum elevation drop used for Conduit 3453534
  WARNING 04: minimum elevation drop used for Conduit 3453535
  WARNING 04: minimum elevation drop used for Conduit 3453540
  WARNING 04: minimum elevation drop used for Conduit 3453545
  WARNING 04: minimum elevation drop used for Conduit 3453546
  WARNING 04: minimum elevation drop used for Conduit 3453552
  WARNING 04: minimum elevation drop used for Conduit 3453553
  WARNING 04: minimum elevation drop used for Conduit 3566082
  WARNING 04: minimum elevation drop used for Conduit 36007
  WARNING 04: minimum elevation drop used for Conduit 3753036
  WARNING 04: minimum elevation drop used for Conduit 3753037
  WARNING 04: minimum elevation drop used for Conduit 3818510
  WARNING 04: minimum elevation drop used for Conduit 3818511
  WARNING 04: minimum elevation drop used for Conduit 3822265
  WARNING 04: minimum elevation drop used for Conduit 3825221
  WARNING 04: minimum elevation drop used for Conduit 3825243
  WARNING 04: minimum elevation drop used for Conduit 3825256
  WARNING 04: minimum elevation drop used for Conduit 3825285
  WARNING 04: minimum elevation drop used for Conduit 3825287
  WARNING 04: minimum elevation drop used for Conduit 3825289
  WARNING 04: minimum elevation drop used for Conduit 3825291
  WARNING 04: minimum elevation drop used for Conduit 3825293
  WARNING 04: minimum elevation drop used for Conduit 3826439
  WARNING 04: minimum elevation drop used for Conduit 3827260
  WARNING 04: minimum elevation drop used for Conduit 3828489
  WARNING 04: minimum elevation drop used for Conduit 3829021
  WARNING 04: minimum elevation drop used for Conduit 3833039
  WARNING 04: minimum elevation drop used for Conduit 3833047
  WARNING 04: minimum elevation drop used for Conduit 3833051
  WARNING 04: minimum elevation drop used for Conduit 3833184
  WARNING 04: minimum elevation drop used for Conduit 3833205
  WARNING 04: minimum elevation drop used for Conduit 3833207
  WARNING 04: minimum elevation drop used for Conduit 3834534
  WARNING 04: minimum elevation drop used for Conduit 3834536
  WARNING 04: minimum elevation drop used for Conduit 3835203
  WARNING 04: minimum elevation drop used for Conduit 3835292
  WARNING 04: minimum elevation drop used for Conduit 3835293
  WARNING 04: minimum elevation drop used for Conduit 3835294
  WARNING 04: minimum elevation drop used for Conduit 3835295
  WARNING 04: minimum elevation drop used for Conduit 3835300
  WARNING 04: minimum elevation drop used for Conduit 3835301
  WARNING 04: minimum elevation drop used for Conduit 3837494
  WARNING 04: minimum elevation drop used for Conduit 3846039
  WARNING 04: minimum elevation drop used for Conduit 3850884
  WARNING 04: minimum elevation drop used for Conduit 3850888
  WARNING 04: minimum elevation drop used for Conduit 3851213
  WARNING 04: minimum elevation drop used for Conduit 3851452
  WARNING 04: minimum elevation drop used for Conduit 47804
  WARNING 04: minimum elevation drop used for Conduit 47902
  WARNING 04: minimum elevation drop used for Conduit 708339
  WARNING 04: minimum elevation drop used for Conduit 708345
  WARNING 04: minimum elevation drop used for Conduit 708346
  WARNING 04: minimum elevation drop used for Conduit FPI_T01_8
  WARNING 04: minimum elevation drop used for Conduit MPI_3828547_1
  WARNING 04: minimum elevation drop used for Conduit MPI_3834535_1
  WARNING 04: minimum elevation drop used for Conduit MPI_3834537_1
  WARNING 04: minimum elevation drop used for Conduit MPI_3834725_1
  WARNING 04: minimum elevation drop used for Conduit MPI_3835253_1
  WARNING 04: minimum elevation drop used for Conduit MPI_3850885_1
  WARNING 04: minimum elevation drop used for Conduit MPI_708341_1
  WARNING 02: maximum depth increased for Node 27398
  WARNING 02: maximum depth increased for Node 3452790
  WARNING 02: maximum depth increased for Node 3453244
  WARNING 02: maximum depth increased for Node 3453489
  
  ****************
  Analysis Options
  ****************
  Flow Units ............... LPS
  Process Models:
    Rainfall/Runoff ........ NO
    RDII ................... NO
    Snowmelt ............... NO
    Groundwater ............ NO
    Flow Routing ........... YES
    Ponding Allowed ........ NO
    Water Quality .......... NO
  Flow Routing Method ...... DYNWAVE
  Surcharge Method ......... EXTRAN
  Starting Date ............ 01/01/2012 00:00:00
  Ending Date .............. 01/02/2012 00:00:00
  Antecedent Dry Days ...... 5.0
  Report Time Step ......... 00:05:00
  Routing Time Step ........ 8.00 sec
  Variable Time Step ....... YES
  Maximum Trials ........... 8
  Number of Threads ........ 1
  Head Tolerance ........... 0.010000 m
  
  
  **************************        Volume        Volume
  Flow Routing Continuity        hectare-m      10^6 ltr
  **************************     ---------     ---------
  Dry Weather Inflow .......         5.649        56.486
  Wet Weather Inflow .......         0.000         0.000
  Groundwater Inflow .......         0.000         0.000
  RDII Inflow ..............         0.000         0.000
  External Inflow ..........         0.000         0.004
  External Outflow .........         5.539        55.393
  Flooding Loss ............         0.000         0.004
  Evaporation Loss .........         0.000         0.000
  Exfiltration Loss ........         0.000         0.000
  Initial Stored Volume ....         0.012         0.122
  Final Stored Volume ......         0.456         4.565
  Continuity Error (%) .....        -5.917
  
  
  *************************
  Highest Continuity Errors
  *************************
  Node MJ_3853154_1 (98.67%)
  Node 740199 (59.06%)
  Node MJ_712328_1 (53.02%)
  Node MJ_712327_1 (46.29%)
  Node MJ_712326_1 (43.36%)
  
  
  ***************************
  Time-Step Critical Elements
  ***************************
  Link 25278 (35.98%)
  Link 132873 (5.45%)
  Link 3453228 (4.81%)
  Link 3835242 (4.75%)
  Link 3834555 (3.17%)
  
  
  ********************************
  Highest Flow Instability Indexes
  ********************************
  Link 3452819 (102)
  Link 3451095 (95)
  Link MPI_3834445_1 (93)
  Link 133171 (92)
  Link 133170 (92)
  
  
  *********************************
  Most Frequent Nonconverging Nodes
  *********************************
  Node 3568323 (99.19%)
  Node 47727 (75.14%)
  Node FJ_T01_7 (75.07%)
  Node 3753047 (74.55%)
  Node 3828545 (74.20%)
  
  
  *************************
  Routing Time Step Summary
  *************************
  Minimum Time Step           :     0.24 sec
  Average Time Step           :     4.25 sec
  Maximum Time Step           :     8.00 sec
  % of Time in Steady State   :     0.00
  Average Iterations per Step :     7.97
  % of Steps Not Converging   :    99.19
  Time Step Frequencies       :
      8.000 -  1.326 sec      :    97.72 %
      1.326 -  0.220 sec      :     2.28 %
      0.220 -  0.036 sec      :     0.00 %
      0.036 -  0.006 sec      :     0.00 %
      0.006 -  0.001 sec      :     0.00 %
  
  
  ******************
  Node Depth Summary
  ******************
  
  ---------------------------------------------------------------------------------
                                 Average  Maximum  Maximum  Time of Max    Reported
                                   Depth    Depth      HGL   Occurrence   Max Depth
  Node                 Type       Meters   Meters   Meters  days hr:min      Meters
  ---------------------------------------------------------------------------------
  1045740              JUNCTION     0.00     0.00    49.75     0  01:57        0.00
  1045778              JUNCTION     0.00     0.00    94.80     0  00:00        0.00
  1045944              JUNCTION     0.00     0.00    63.04     0  03:52        0.00
  1045945              JUNCTION     0.00     0.00    64.86     0  17:21        0.00
  1045946              JUNCTION     0.00     0.00    62.25     0  10:12        0.00
  1045947              JUNCTION     0.01     0.01    58.50     0  17:24        0.01
  1045948              JUNCTION     0.01     0.01    60.24     0  20:46        0.01
  1045949              JUNCTION     0.01     0.01    67.75     0  01:48        0.01
  1045950              JUNCTION     0.00     0.00    72.24     0  02:16        0.00
  1050078              JUNCTION     0.04     0.05     2.64     0  23:53        0.05
  1051180              JUNCTION     0.01     0.01    25.01     0  12:14        0.01
  1051181              JUNCTION     0.01     0.01    25.32     0  11:52        0.01
  1051506              JUNCTION     0.01     0.01    51.74     0  05:22        0.01
  1051507              JUNCTION     0.01     0.01    53.95     0  14:30        0.01
  1051508              JUNCTION     0.00     0.00    61.26     0  02:31        0.00
  1051509              JUNCTION     0.01     0.01    52.18     0  12:07        0.01
  1051510              JUNCTION     0.01     0.01    49.79     0  21:38        0.01
  1051511              JUNCTION     0.01     0.01    47.61     0  03:39        0.01
  1051512              JUNCTION     0.02     0.02    50.01     0  22:14        0.02
  1051513              JUNCTION     0.01     0.01    50.74     0  05:26        0.01
  1051514              JUNCTION     0.01     0.01    53.34     0  16:09        0.01
  1051515              JUNCTION     0.01     0.01    57.86     0  00:19        0.01
  1051516              JUNCTION     0.01     0.01    58.04     0  00:07        0.01
  1051517              JUNCTION     0.01     0.01    54.27     0  00:31        0.01
  1051518              JUNCTION     0.00     0.00    68.19     0  04:13        0.00
  1051539              JUNCTION     0.02     0.02     0.20     0  01:49        0.02
  1051540              JUNCTION     0.02     0.02     0.75     0  02:37        0.02
  1051541              JUNCTION     0.02     0.02     1.25     0  11:49        0.02
  1051542              JUNCTION     0.02     0.02     0.56     0  05:17        0.02
  1051543              JUNCTION     0.03     0.03    -0.56     0  03:12        0.03
  1051544              JUNCTION     0.02     0.02    -0.23     0  02:29        0.02
  1051545              JUNCTION     0.00     0.00     2.53     0  00:46        0.00
  1051546              JUNCTION     0.01     0.01     1.70     0  01:45        0.01
  1051547              JUNCTION     0.01     0.01     1.58     0  15:16        0.01
  1051548              JUNCTION     0.01     0.01     2.72     0  02:08        0.01
  1051549              JUNCTION     0.01     0.01     2.36     0  00:38        0.01
  1051550              JUNCTION     0.01     0.01     2.09     0  00:42        0.01
  1051551              JUNCTION     0.00     0.00     2.25     0  00:57        0.00
  1051552              JUNCTION     0.00     0.00     2.05     0  00:26        0.00
  1051553              JUNCTION     0.00     0.00     1.86     0  00:39        0.00
  1051554              JUNCTION     0.01     0.01     2.16     0  02:34        0.01
  1051555              JUNCTION     0.00     0.00     1.71     0  00:00        0.00
  1204177              JUNCTION     0.01     0.01     5.03     0  05:05        0.01
  1204178              JUNCTION     0.01     0.01     5.97     0  00:54        0.01
  1204179              JUNCTION     0.01     0.01     5.87     0  01:53        0.01
  1204180              JUNCTION     0.02     0.02     5.61     0  04:24        0.02
  1204181              JUNCTION     0.02     0.02     5.29     0  00:09        0.02
  1204182              JUNCTION     0.03     0.03     4.73     0  00:18        0.03
  1204183              JUNCTION     0.03     0.03     4.42     0  00:23        0.03
  1204184              JUNCTION     0.01     0.01     4.02     0  00:26        0.01
  1204185              JUNCTION     0.03     0.03     3.83     0  00:52        0.03
  1204186              JUNCTION     0.03     0.03     3.47     0  00:57        0.03
  1204187              JUNCTION     0.02     0.02     3.32     0  00:02        0.02
  1204188              JUNCTION     0.04     0.04     3.07     0  01:11        0.04
  1204189              JUNCTION     0.01     0.01     2.72     0  00:02        0.01
  1204190              JUNCTION     0.04     0.04     2.48     0  04:48        0.04
  1204191              JUNCTION     0.05     0.05     2.02     0  01:59        0.05
  1204192              JUNCTION     0.04     0.05     0.49     0  00:13        0.05
  1204193              JUNCTION     0.04     0.04     0.74     0  00:12        0.04
  1204194              JUNCTION     0.04     0.04     1.20     0  00:06        0.04
  1204195              JUNCTION     0.01     0.01     3.22     0  00:14        0.01
  1204196              JUNCTION     0.02     0.02     1.61     0  00:53        0.02
  1204197              JUNCTION     0.01     0.01     2.07     0  15:03        0.01
  1204198              JUNCTION     0.02     0.02     2.29     0  00:17        0.02
  1294809              JUNCTION     0.00     0.00    36.62     0  00:00        0.00
  1294810              JUNCTION     0.00     0.00    36.64     0  00:00        0.00
  1294812              JUNCTION     0.00     0.00    49.82     0  16:59        0.00
  1294813              JUNCTION     0.02     0.09    43.77     0  09:57        0.07
  1294814              JUNCTION     0.02     0.08    43.46     0  09:58        0.07
  1294815              JUNCTION     0.02     0.06    43.16     0  09:58        0.06
  1294816              JUNCTION     0.02     0.05    42.24     0  09:58        0.05
  1294818              JUNCTION     0.00     0.00    40.77     0  00:45        0.00
  1294819              JUNCTION     0.00     0.00    41.75     0  01:02        0.00
  1294820              JUNCTION     0.01     0.01    37.41     0  06:51        0.01
  1294821              JUNCTION     0.00     0.00    37.00     0  02:12        0.00
  1294822              JUNCTION     0.03     0.03    36.01     0  07:17        0.03
  1294823              JUNCTION     0.01     0.01    39.03     0  14:21        0.01
  1294824              JUNCTION     0.00     0.00    38.31     0  00:45        0.00
  1294825              JUNCTION     0.02     0.02    37.54     0  21:24        0.02
  1294826              JUNCTION     0.03     0.03    36.20     0  14:58        0.03
  1294827              JUNCTION     0.02     0.02    38.85     0  06:19        0.02
  1294828              JUNCTION     0.00     0.00    44.87     0  07:37        0.00
  1294829              JUNCTION     0.01     0.01    39.63     0  16:41        0.01
  1294830              JUNCTION     0.02     0.02    40.30     0  11:35        0.02
  1294831              JUNCTION     0.01     0.01    42.21     0  21:58        0.01
  1294832              JUNCTION     0.02     0.02    40.49     0  12:09        0.02
  1294834              JUNCTION     0.01     0.01    46.28     0  07:08        0.01
  1294835              JUNCTION     0.01     0.01    41.33     0  02:53        0.01
  1294836              JUNCTION     0.01     0.01    42.61     0  01:28        0.01
  1294837              JUNCTION     0.00     0.00    46.81     0  21:07        0.00
  1294838              JUNCTION     0.00     0.00    49.45     0  01:31        0.00
  1294839              JUNCTION     0.00     0.00    51.66     0  04:04        0.00
  1294986              JUNCTION     0.01     0.01    37.85     0  00:05        0.01
  1294992              JUNCTION     0.00     0.00    36.34     0  00:00        0.00
  1295006              JUNCTION     0.00     0.00    42.86     0  06:37        0.00
  1295493              JUNCTION     0.01     0.01     1.33     0  18:45        0.01
  1295494              JUNCTION     0.01     0.01     1.44     0  02:47        0.01
  1295497              JUNCTION     0.02     0.02     1.00     0  02:02        0.02
  1295498              JUNCTION     0.01     0.01     1.74     0  00:48        0.01
  1295503              JUNCTION     0.01     0.01     0.30     0  10:59        0.01
  1295506              JUNCTION     0.01     0.01     1.54     0  00:07        0.01
  1295507              JUNCTION     0.03     0.03     0.40     0  00:47        0.03
  1295532              JUNCTION     0.05     0.05     0.24     0  00:54        0.05
  1295540              JUNCTION     0.06     0.10     0.97     0  10:48        0.10
  1295543              JUNCTION     0.04     0.04     0.35     0  22:02        0.04
  1295548              JUNCTION     0.02     0.10     2.67     0  17:05        0.09
  1295549              JUNCTION     0.02     0.09     2.36     0  17:06        0.08
  1295553              JUNCTION     0.01     0.01    12.20     0  01:14        0.01
  1295664              JUNCTION     0.05     0.05     1.58     0  00:02        0.05
  1295666              JUNCTION     0.01     0.01     1.76     0  00:49        0.01
  1295667              JUNCTION     0.01     0.01     1.66     0  00:10        0.01
  1295668              JUNCTION     0.01     0.01     1.58     0  08:05        0.01
  1295669              JUNCTION     0.08     0.14     1.17     0  05:01        0.14
  1295831              JUNCTION     0.01     0.01    22.49     0  01:08        0.01
  1295832              JUNCTION     0.02     0.02    22.76     0  00:07        0.02
  1295885              JUNCTION     0.32     0.32     1.56     0  01:38        0.32
  1295888              JUNCTION     0.01     0.01     1.44     0  00:59        0.01
  1295889              JUNCTION     0.01     0.01     1.00     0  01:06        0.01
  1295903              JUNCTION     0.08     0.08    -0.58     0  01:03        0.08
  1295904              JUNCTION     0.03     0.03     1.03     0  00:02        0.03
  1295905              JUNCTION     0.04     0.04     1.18     0  00:01        0.04
  1295911              JUNCTION     0.02     0.03     0.13     0  00:13        0.03
  1295912              JUNCTION     0.09     0.09     0.11     0  01:53        0.09
  1295913              JUNCTION     0.12     0.12     0.11     0  02:01        0.12
  1295919              JUNCTION     0.01     0.01     0.75     0  02:03        0.01
  1295922              JUNCTION     0.04     0.04     1.47     0  08:25        0.04
  1295932              JUNCTION     0.24     0.24     2.49     0  00:41        0.24
  1295933              JUNCTION     0.09     0.09     2.49     0  00:38        0.09
  1295934              JUNCTION     0.02     0.02     2.79     0  14:10        0.02
  1295935              JUNCTION     0.01     0.01     3.38     0  00:02        0.01
  1295940              JUNCTION     0.01     0.01     1.58     0  01:47        0.01
  1296101              JUNCTION     0.02     0.02    10.04     0  11:06        0.02
  1296102              JUNCTION     0.03     0.03     9.59     0  16:53        0.03
  1296103              JUNCTION     0.03     0.03     9.40     0  10:44        0.03
  1310392              JUNCTION     0.00     0.00    35.49     0  00:00        0.00
  1310394              JUNCTION     0.00     0.00    46.27     0  06:14        0.00
  1310395              JUNCTION     0.00     0.00    46.13     0  00:00        0.00
  1310396              JUNCTION     0.03     0.03    41.21     0  04:39        0.03
  1310397              JUNCTION     0.04     0.04    41.94     0  07:42        0.04
  1310398              JUNCTION     0.01     0.01    41.97     0  01:06        0.01
  1310399              JUNCTION     0.01     0.01    42.39     0  06:29        0.01
  1310400              JUNCTION     0.01     0.01    43.98     0  08:49        0.01
  1310401              JUNCTION     0.00     0.00    42.82     0  00:00        0.00
  1310402              JUNCTION     0.01     0.01    42.65     0  02:35        0.01
  1310403              JUNCTION     0.01     0.01    42.56     0  05:01        0.01
  1310404              JUNCTION     0.01     0.01    42.13     0  22:23        0.01
  1310405              JUNCTION     0.02     0.02    45.95     0  23:31        0.02
  1310406              JUNCTION     0.01     0.01    45.31     0  07:01        0.01
  1310407              JUNCTION     0.01     0.01    42.96     0  17:42        0.01
  1310408              JUNCTION     0.01     0.01    41.92     0  23:14        0.01
  1310409              JUNCTION     0.04     0.04    39.62     0  22:36        0.04
  1310410              JUNCTION     0.00     0.00    43.70     0  18:04        0.00
  1310411              JUNCTION     0.00     0.00    40.93     0  04:19        0.00
  1310412              JUNCTION     0.05     0.05    38.71     0  06:48        0.05
  1310413              JUNCTION     0.05     0.05    38.30     0  06:07        0.05
  1310414              JUNCTION     0.00     0.00    49.26     0  01:16        0.00
  1310415              JUNCTION     0.01     0.01    47.65     0  06:14        0.01
  1310416              JUNCTION     0.01     0.01    43.32     0  04:23        0.01
  1310417              JUNCTION     0.01     0.01    40.16     0  21:20        0.01
  1310418              JUNCTION     0.01     0.01    39.77     0  16:49        0.01
  1310419              JUNCTION     0.05     0.05    37.94     0  14:56        0.05
  1310420              JUNCTION     0.05     0.05    35.61     0  14:25        0.05
  1310421              JUNCTION     0.03     0.03    35.44     0  21:00        0.03
  1310422              JUNCTION     0.05     0.05    33.33     0  14:43        0.05
  1310423              JUNCTION     0.04     0.04    33.07     0  08:58        0.04
  1310424              JUNCTION     0.04     0.04    31.37     0  21:29        0.04
  1310425              JUNCTION     0.04     0.04    30.46     0  12:23        0.04
  1310426              JUNCTION     0.12     0.12    29.19     0  04:51        0.12
  1313495              JUNCTION     0.02     0.02     1.22     0  00:46        0.02
  1313496              JUNCTION     0.02     0.02     0.95     0  00:16        0.02
  1313497              JUNCTION     0.49     0.49     0.64     0  02:37        0.49
  1315112              JUNCTION     0.03     0.03    72.11     0  19:29        0.03
  1315113              JUNCTION     0.04     0.04    72.14     0  07:52        0.04
  1315114              JUNCTION     0.00     0.00    84.24     0  13:47        0.00
  132722               JUNCTION    10.86    24.53    25.58     0  06:25       19.73
  1397613              JUNCTION     0.00     0.00     2.40     0  00:00        0.00
  1669541              JUNCTION     0.00     0.00    54.15     0  10:10        0.00
  1669542              JUNCTION     0.00     0.00    64.57     0  20:58        0.00
  1669543              JUNCTION     0.00     0.00    56.10     0  09:15        0.00
  1669544              JUNCTION     0.01     0.01    56.99     0  02:04        0.01
  1669545              JUNCTION     0.00     0.00    62.81     0  15:44        0.00
  1761454              JUNCTION     0.00     0.00     2.08     0  01:41        0.00
  1761455              JUNCTION     0.00     0.00     2.13     0  14:38        0.00
  1761456              JUNCTION     0.01     0.01     2.22     0  00:48        0.01
  1761457              JUNCTION     0.01     0.01     1.36     0  05:05        0.01
  1761458              JUNCTION     0.01     0.01     1.64     0  02:36        0.01
  1761459              JUNCTION     0.01     0.01     1.96     0  01:35        0.01
  1761460              JUNCTION     0.01     0.01     1.80     0  12:00        0.01
  1761461              JUNCTION     0.02     0.02     0.92     0  05:06        0.02
  1761462              JUNCTION     0.02     0.02     0.34     0  01:45        0.02
  1761856              JUNCTION     0.02     0.02    16.57     0  16:21        0.02
  1761857              JUNCTION     0.01     0.01    16.90     0  20:19        0.01
  1991235              JUNCTION     0.01     0.01    28.01     0  11:53        0.01
  1991238              JUNCTION     0.00     0.00     8.54     0  08:13        0.00
  1994207              JUNCTION     0.01     0.01     0.40     0  01:42        0.01
  1994462              JUNCTION     0.00     0.00     2.57     0  00:32        0.00
  20098                JUNCTION     0.02     0.02     2.17     0  02:26        0.02
  20099                JUNCTION     0.02     0.02     2.55     0  14:32        0.02
  20100                JUNCTION     0.02     0.02     2.70     0  10:29        0.02
  20101                JUNCTION     0.01     0.01     5.06     0  05:43        0.01
  20102                JUNCTION     0.00     0.00    10.87     0  20:35        0.00
  20103                JUNCTION     0.02     0.02     3.50     0  18:19        0.02
  20104                JUNCTION     0.02     0.02     4.04     0  07:19        0.02
  20105                JUNCTION     0.01     0.01     5.57     0  02:09        0.01
  20106                JUNCTION     0.00     0.00     1.69     0  00:00        0.00
  20107                JUNCTION     0.03     0.03     1.65     0  13:31        0.03
  20108                JUNCTION     0.02     0.02     1.99     0  04:13        0.02
  20109                JUNCTION     0.01     0.01     2.14     0  20:32        0.01
  20110                JUNCTION     0.01     0.01     2.91     0  12:43        0.01
  20111                JUNCTION     0.07     0.07     0.79     0  03:22        0.07
  20112                JUNCTION     0.05     0.05     0.32     0  03:52        0.05
  20113                JUNCTION     0.02     0.02     1.76     0  01:33        0.02
  20114                JUNCTION     0.02     0.02     2.13     0  01:33        0.02
  20115                JUNCTION     0.02     0.02     0.93     0  08:07        0.02
  20116                JUNCTION     0.02     0.02     1.09     0  18:34        0.02
  20117                JUNCTION     0.02     0.02     1.54     0  02:28        0.02
  20118                JUNCTION     0.01     0.01     1.93     0  01:26        0.01
  20119                JUNCTION     0.02     0.02     1.43     0  03:17        0.02
  20120                JUNCTION     0.02     0.02     1.75     0  02:10        0.02
  20121                JUNCTION     0.01     0.01     2.15     0  02:02        0.01
  20122                JUNCTION     0.01     0.01     2.55     0  01:35        0.01
  20123                JUNCTION     0.01     0.01     2.07     0  03:53        0.01
  20124                JUNCTION     0.01     0.01     2.22     0  01:52        0.01
  20125                JUNCTION     0.01     0.01     2.63     0  01:24        0.01
  20126                JUNCTION     0.09     0.10     2.21     0  09:11        0.10
  20127                JUNCTION     0.08     0.08     2.41     0  09:11        0.08
  20128                JUNCTION     0.09     0.09     2.73     0  03:32        0.09
  20129                JUNCTION     0.01     0.01     2.53     0  01:43        0.01
  20130                JUNCTION     0.01     0.01     2.45     0  01:17        0.01
  20131                JUNCTION     0.02     0.02     2.08     0  02:27        0.02
  20132                JUNCTION     0.04     0.04     1.68     0  20:01        0.04
  20133                JUNCTION     0.01     0.01     2.27     0  02:00        0.01
  20134                JUNCTION     0.01     0.01     2.56     0  02:37        0.01
  20135                JUNCTION     0.03     0.03     1.24     0  02:43        0.03
  20136                JUNCTION     0.02     0.02     1.48     0  03:09        0.02
  20137                JUNCTION     0.02     0.02     2.02     0  02:56        0.02
  20138                JUNCTION     0.01     0.01     2.74     0  02:15        0.01
  20139                JUNCTION     0.03     0.03     0.20     0  01:46        0.03
  20140                JUNCTION     0.02     0.02     0.53     0  01:32        0.02
  20141                JUNCTION     0.02     0.02     0.87     0  10:29        0.02
  20142                JUNCTION     0.01     0.01     1.49     0  10:21        0.01
  20143                JUNCTION     0.02     0.02     1.56     0  06:05        0.02
  20144                JUNCTION     0.01     0.01     2.02     0  00:36        0.01
  20145                JUNCTION     0.01     0.01     2.61     0  00:32        0.01
  20146                JUNCTION     0.02     0.02     2.35     0  20:29        0.02
  20147                JUNCTION     0.01     0.01     2.52     0  00:54        0.01
  20148                JUNCTION     0.01     0.01     2.56     0  00:53        0.01
  20149                JUNCTION     0.12     0.13    -0.42     0  04:08        0.13
  20150                JUNCTION     0.05     0.06    -0.28     0  00:26        0.05
  20151                JUNCTION     0.05     0.05    -0.13     0  08:40        0.05
  20152                JUNCTION     0.05     0.05     0.14     0  05:23        0.05
  20153                JUNCTION     0.02     0.02     1.29     0  20:31        0.02
  20154                JUNCTION     0.02     0.02     2.01     0  02:55        0.02
  20155                JUNCTION     0.01     0.01     2.20     0  02:02        0.01
  20156                JUNCTION     0.01     0.01     2.45     0  02:30        0.01
  20157                JUNCTION     0.01     0.01     2.43     0  00:53        0.01
  20158                JUNCTION     0.01     0.01     1.92     0  01:07        0.01
  20159                JUNCTION     0.01     0.01     2.35     0  02:11        0.01
  20160                JUNCTION     0.02     0.02     1.09     0  19:23        0.02
  20161                JUNCTION     0.02     0.02     1.60     0  04:17        0.02
  20162                JUNCTION     0.01     0.01     1.93     0  11:37        0.01
  20163                JUNCTION     0.01     0.01     2.62     0  01:57        0.01
  20164                JUNCTION     0.06     0.07     0.17     0  04:02        0.07
  20165                JUNCTION     0.07     0.07     0.38     0  03:57        0.07
  20166                JUNCTION     0.14     0.14     1.62     0  03:41        0.14
  20167                JUNCTION     0.05     0.05    -0.12     0  03:37        0.05
  20168                JUNCTION     0.05     0.05     0.03     0  03:37        0.05
  20169                JUNCTION     0.02     0.02     0.56     0  02:14        0.02
  20170                JUNCTION     0.04     0.04     0.24     0  03:11        0.04
  20171                JUNCTION     0.04     0.04     0.46     0  19:22        0.04
  20172                JUNCTION     0.04     0.04     0.90     0  10:31        0.04
  20173                JUNCTION     0.01     0.01     1.60     0  01:35        0.01
  20174                JUNCTION     0.01     0.01     2.09     0  23:33        0.01
  20175                JUNCTION     0.02     0.02     1.12     0  14:38        0.02
  20176                JUNCTION     0.03     0.03     1.21     0  04:24        0.03
  20177                JUNCTION     0.01     0.01     1.94     0  13:22        0.01
  20178                JUNCTION     0.01     0.01     1.76     0  13:44        0.01
  20179                JUNCTION     0.01     0.01     2.56     0  02:11        0.01
  20180                JUNCTION     0.03     0.03     1.59     0  05:50        0.03
  20181                JUNCTION     0.02     0.02     2.10     0  02:54        0.02
  20182                JUNCTION     0.01     0.01     2.20     0  09:55        0.01
  20183                JUNCTION     0.01     0.01     2.42     0  03:09        0.01
  20184                JUNCTION     0.01     0.01     2.44     0  02:43        0.01
  20185                JUNCTION     0.02     0.02     2.58     0  21:11        0.02
  20186                JUNCTION     0.01     0.01     2.66     0  03:57        0.01
  20187                JUNCTION     0.01     0.01     3.25     0  03:22        0.01
  20188                JUNCTION     0.01     0.01     2.71     0  18:41        0.01
  20189                JUNCTION     0.01     0.01     2.87     0  06:01        0.01
  20190                JUNCTION     0.01     0.01     2.86     0  05:59        0.01
  20191                JUNCTION     0.01     0.01     3.01     0  01:15        0.01
  20192                JUNCTION     0.01     0.01     3.48     0  02:37        0.01
  20193                JUNCTION     0.01     0.01     3.90     0  02:12        0.01
  20232                JUNCTION     0.03     0.03     1.14     0  00:09        0.03
  20233                JUNCTION     0.03     0.03     1.39     0  06:04        0.03
  20234                JUNCTION     0.03     0.03     1.76     0  02:28        0.03
  20235                JUNCTION     0.01     0.01     1.85     0  00:49        0.01
  20236                JUNCTION     0.02     0.02     2.45     0  01:22        0.02
  20237                JUNCTION     0.02     0.02     2.08     0  11:11        0.02
  20238                JUNCTION     0.06     0.06     0.45     0  03:46        0.06
  20239                JUNCTION     0.02     0.02     0.71     0  05:10        0.02
  20240                JUNCTION     0.02     0.02     0.98     0  05:07        0.02
  20241                JUNCTION     0.02     0.02     2.05     0  04:55        0.02
  20242                JUNCTION     0.01     0.01     2.55     0  05:06        0.01
  20243                JUNCTION     0.01     0.01     2.00     0  02:12        0.01
  20244                JUNCTION     0.01     0.01     2.13     0  07:03        0.01
  20245                JUNCTION     0.01     0.01     2.27     0  05:12        0.01
  20246                JUNCTION     0.01     0.01     2.39     0  01:53        0.01
  20247                JUNCTION     0.01     0.01     2.04     0  00:42        0.01
  20248                JUNCTION     0.05     0.05     1.59     0  02:42        0.05
  20249                JUNCTION     0.02     0.02     0.96     0  02:47        0.02
  20250                JUNCTION     0.06     0.06     0.39     0  00:22        0.06
  20251                JUNCTION     0.08     0.08    -0.20     0  13:35        0.08
  20252                JUNCTION     0.07     0.07     0.08     0  00:26        0.07
  20253                JUNCTION     0.03     0.03     0.79     0  04:04        0.03
  20254                JUNCTION     0.01     0.01     2.54     0  02:59        0.01
  20255                JUNCTION     0.13     0.13    -0.01     0  02:21        0.13
  20256                JUNCTION     0.07     0.08     0.19     0  00:13        0.07
  20257                JUNCTION     0.08     0.08     0.44     0  02:16        0.08
  20258                JUNCTION     0.01     0.01     2.49     0  02:31        0.01
  20259                JUNCTION     0.01     0.01     2.06     0  05:13        0.01
  20260                JUNCTION     0.05     0.05    -0.21     0  10:06        0.05
  20261                JUNCTION     0.10     0.10    -0.91     0  13:37        0.10
  20263                JUNCTION     0.08     0.08    -0.52     0  13:37        0.08
  20264                JUNCTION     0.03     0.03    -0.64     0  01:55        0.03
  20265                JUNCTION     0.09     0.10    -0.62     0  03:58        0.10
  20266                JUNCTION     0.01     0.01     2.30     0  01:27        0.01
  20267                JUNCTION     0.01     0.01     1.82     0  02:33        0.01
  20268                JUNCTION     0.02     0.02     1.06     0  02:06        0.02
  20296                JUNCTION     0.02     0.02    -0.47     0  01:41        0.02
  20297                JUNCTION     0.02     0.02    -0.87     0  02:44        0.02
  20298                JUNCTION     0.01     0.01     0.80     0  08:16        0.01
  20299                JUNCTION     0.01     0.01     1.72     0  02:38        0.01
  20300                JUNCTION     0.03     0.03    -0.10     0  01:54        0.03
  20301                JUNCTION     0.03     0.03     0.19     0  01:50        0.03
  20302                JUNCTION     0.03     0.03     0.65     0  01:46        0.03
  20303                JUNCTION     0.05     0.06    -1.12     0  21:08        0.06
  20304                JUNCTION     0.03     0.03    -0.33     0  01:54        0.03
  20305                JUNCTION     0.04     0.06    -0.90     0  21:06        0.06
  20306                JUNCTION     0.04     0.05    -0.69     0  21:05        0.05
  20307                JUNCTION     0.04     0.05    -0.53     0  21:04        0.05
  20308                JUNCTION     0.03     0.05    -0.28     0  21:04        0.05
  20363                JUNCTION     0.01     0.01     1.80     0  00:49        0.01
  20364                JUNCTION     0.02     0.02     0.70     0  01:41        0.02
  20365                JUNCTION     0.01     0.01     0.92     0  04:07        0.01
  20366                JUNCTION     0.01     0.01     1.68     0  00:59        0.01
  20367                JUNCTION     0.01     0.01     1.35     0  02:23        0.01
  20368                JUNCTION     0.03     0.03    -0.47     0  01:42        0.03
  20369                JUNCTION     0.02     0.02    -0.08     0  01:41        0.02
  20370                JUNCTION     0.02     0.02     0.43     0  01:38        0.02
  20371                JUNCTION     0.01     0.01     1.14     0  00:51        0.01
  20372                JUNCTION     0.02     0.02     0.92     0  04:58        0.02
  20373                JUNCTION     0.01     0.01     1.14     0  01:11        0.01
  20374                JUNCTION     0.01     0.01    -0.08     0  01:14        0.01
  20375                JUNCTION     0.02     0.02    -1.32     0  02:46        0.02
  20377                JUNCTION     0.02     0.04     0.09     0  21:03        0.04
  20378                JUNCTION     0.01     0.01     0.64     0  03:41        0.01
  20379                JUNCTION     0.01     0.01     0.83     0  02:13        0.01
  20380                JUNCTION     0.01     0.01     1.46     0  01:54        0.01
  20381                JUNCTION     0.05     0.09     0.19     0  21:01        0.09
  20382                JUNCTION     0.03     0.05     0.46     0  20:59        0.05
  20383                JUNCTION     0.03     0.05     0.89     0  20:58        0.05
  20384                JUNCTION     0.03     0.07     1.32     0  20:56        0.06
  20385                JUNCTION     0.02     0.09     1.58     0  20:54        0.09
  20450                JUNCTION     0.03     0.03     0.69     0  00:25        0.03
  20451                JUNCTION     0.03     0.03     1.43     0  00:53        0.03
  20452                JUNCTION     0.03     0.04    -0.91     0  02:37        0.04
  20453                JUNCTION     0.01     0.01    -0.80     0  02:18        0.01
  20454                JUNCTION     0.03     0.03    -0.72     0  11:54        0.03
  20455                JUNCTION     0.02     0.02    -0.49     0  02:16        0.02
  20456                JUNCTION     0.01     0.01     0.31     0  00:09        0.01
  20457                JUNCTION     0.01     0.01     0.06     0  02:13        0.01
  20458                JUNCTION     0.01     0.01     0.74     0  00:04        0.01
  20459                JUNCTION     0.02     0.02     0.75     0  00:52        0.02
  20460                JUNCTION     0.02     0.02     0.57     0  01:27        0.02
  20716                JUNCTION     0.03     0.03     0.33     0  01:49        0.03
  20717                JUNCTION     0.00     0.00     0.78     0  01:58        0.00
  20718                JUNCTION     0.01     0.01     2.43     0  04:31        0.01
  20719                JUNCTION     0.02     0.02     2.20     0  03:48        0.02
  20720                JUNCTION     0.02     0.02     1.83     0  13:49        0.02
  20721                JUNCTION     0.03     0.03     1.66     0  21:22        0.03
  20722                JUNCTION     0.03     0.04     1.44     0  00:33        0.04
  20723                JUNCTION     0.03     0.05     1.31     0  10:39        0.05
  20724                JUNCTION     0.02     0.02     2.26     0  02:57        0.02
  20725                JUNCTION     0.10     0.20     1.32     0  10:37        0.18
  20726                JUNCTION     0.01     0.01     2.01     0  01:33        0.01
  20727                JUNCTION     0.02     0.02     3.35     0  06:49        0.02
  20783                JUNCTION     1.42     4.84     5.11     0  12:50        2.36
  20784                JUNCTION     0.01     0.01     1.36     0  12:21        0.01
  20785                JUNCTION     0.08     0.08     0.84     0  02:37        0.08
  20786                JUNCTION     0.09     0.09    31.77     0  04:43        0.09
  20787                JUNCTION     0.09     0.10    31.46     0  04:45        0.10
  20788                JUNCTION     0.09     0.09    31.61     0  04:44        0.09
  20789                JUNCTION     0.09     0.09    31.28     0  04:46        0.09
  20790                JUNCTION     0.08     0.09    30.86     0  04:48        0.09
  20791                JUNCTION     0.09     0.10    29.44     0  04:50        0.10
  20792                JUNCTION     0.09     0.10    29.25     0  04:50        0.10
  20793                JUNCTION     0.12     0.13    28.99     0  04:53        0.13
  20794                JUNCTION     0.09     0.09    28.60     0  04:54        0.09
  20795                JUNCTION     0.10     0.11    27.32     0  04:55        0.11
  20796                JUNCTION     0.10     0.10    27.01     0  04:56        0.10
  20797                JUNCTION     0.07     0.07    26.52     0  04:56        0.07
  20798                JUNCTION     0.07     0.07    24.53     0  04:57        0.07
  20799                JUNCTION     0.07     0.07    23.47     0  04:57        0.07
  20800                JUNCTION     0.07     0.07    20.71     0  04:58        0.07
  20801                JUNCTION     0.00     0.00   142.78     0  06:40        0.00
  20802                JUNCTION     0.00     0.00   136.59     0  17:31        0.00
  20803                JUNCTION     0.01     0.01   118.88     0  21:51        0.01
  20804                JUNCTION     0.01     0.01   116.02     0  14:03        0.01
  20805                JUNCTION     0.01     0.01   108.24     0  12:45        0.01
  20806                JUNCTION     0.01     0.01   110.91     0  02:01        0.01
  20807                JUNCTION     0.00     0.00   109.47     0  02:03        0.00
  20808                JUNCTION     0.00     0.00   107.12     0  09:22        0.00
  20809                JUNCTION     0.01     0.01   116.77     0  21:03        0.01
  20810                JUNCTION     0.01     0.01   119.61     0  05:38        0.01
  20811                JUNCTION     0.01     0.01   121.21     0  13:27        0.01
  20812                JUNCTION     0.01     0.01   127.91     0  10:55        0.01
  20813                JUNCTION     0.00     0.00   107.23     0  14:52        0.00
  20814                JUNCTION     0.01     0.01    94.46     0  19:36        0.01
  20815                JUNCTION     0.01     0.01    18.55     0  09:32        0.01
  20816                JUNCTION     0.01     0.01    19.70     0  08:46        0.01
  20817                JUNCTION     0.02     0.02    20.05     0  10:32        0.02
  20818                JUNCTION     0.01     0.01    20.12     0  14:06        0.01
  20819                JUNCTION     0.01     0.01    20.48     0  09:35        0.01
  20820                JUNCTION     0.01     0.01    20.79     0  16:03        0.01
  20821                JUNCTION     0.01     0.01    21.02     0  20:36        0.01
  20822                JUNCTION     0.01     0.01    21.26     0  23:36        0.01
  20823                JUNCTION     0.01     0.01    22.04     0  08:39        0.01
  20824                JUNCTION     0.00     0.00    48.25     0  23:59        0.00
  20825                JUNCTION     0.01     0.01    47.01     0  11:49        0.01
  20826                JUNCTION     0.01     0.01    51.01     0  05:15        0.01
  20827                JUNCTION     0.00     0.00    59.90     0  01:13        0.00
  20828                JUNCTION     0.01     0.01    53.86     0  22:22        0.01
  20829                JUNCTION     0.00     0.00    60.00     0  01:04        0.00
  20830                JUNCTION     0.00     0.00    62.34     0  04:33        0.00
  20831                JUNCTION     0.01     0.01    63.09     0  20:14        0.01
  20832                JUNCTION     0.00     0.00    70.15     0  01:05        0.00
  20833                JUNCTION     0.01     0.01    58.35     0  13:00        0.01
  20834                JUNCTION     0.00     0.00    58.16     0  09:48        0.00
  20835                JUNCTION     0.01     0.01    70.91     0  16:27        0.01
  20836                JUNCTION     0.00     0.00    69.72     0  02:22        0.00
  20837                JUNCTION     0.01     0.01    44.77     0  05:17        0.01
  20838                JUNCTION     0.00     0.00    48.97     0  23:36        0.00
  20839                JUNCTION     0.00     0.00    47.71     0  16:59        0.00
  20840                JUNCTION     0.01     0.01    17.01     0  01:17        0.01
  20841                JUNCTION     0.01     0.01    16.53     0  11:34        0.01
  20842                JUNCTION     0.02     0.02    16.49     0  13:19        0.02
  20843                JUNCTION     0.00     0.00    21.82     0  03:21        0.00
  20844                JUNCTION     0.01     0.01    12.76     0  00:54        0.01
  20845                JUNCTION     0.01     0.01    12.53     0  21:13        0.01
  20846                JUNCTION     0.01     0.01    12.00     0  07:51        0.01
  20847                JUNCTION     0.13     0.13    10.28     0  05:13        0.13
  20848                JUNCTION     0.03     0.03    10.38     0  10:42        0.03
  20849                JUNCTION     0.03     0.03    10.61     0  12:44        0.03
  20850                JUNCTION     0.02     0.02    10.84     0  08:19        0.02
  20851                JUNCTION     0.01     0.01    11.09     0  00:44        0.01
  20852                JUNCTION     0.01     0.01    12.86     0  02:04        0.01
  20853                JUNCTION     0.02     0.02    11.22     0  03:01        0.02
  20854                JUNCTION     0.01     0.01    14.09     0  09:36        0.01
  20855                JUNCTION     0.01     0.01    14.30     0  01:03        0.01
  20856                JUNCTION     0.01     0.01    14.28     0  22:25        0.01
  20857                JUNCTION     0.01     0.01    14.56     0  11:49        0.01
  20858                JUNCTION     0.00     0.00    16.53     0  18:06        0.00
  20859                JUNCTION     0.01     0.01    14.85     0  22:08        0.01
  20860                JUNCTION     0.00     0.00    16.00     0  02:09        0.00
  20861                JUNCTION     0.14     0.14    17.18     0  04:59        0.14
  20862                JUNCTION     0.13     0.14    16.59     0  05:05        0.14
  20863                JUNCTION     0.14     0.14    16.82     0  05:02        0.14
  20864                JUNCTION     0.13     0.13    16.95     0  05:01        0.13
  20865                JUNCTION     0.13     0.13    16.34     0  05:05        0.13
  20866                JUNCTION     0.12     0.13    15.99     0  05:07        0.13
  20867                JUNCTION     0.13     0.13    16.14     0  05:06        0.13
  20868                JUNCTION     0.13     0.14    15.57     0  05:08        0.14
  20869                JUNCTION     0.12     0.12    15.77     0  05:08        0.12
  20870                JUNCTION     0.18     0.19    15.07     0  05:11        0.19
  20871                JUNCTION     0.12     0.12    15.35     0  05:10        0.12
  20872                JUNCTION     0.01     0.01   137.51     0  18:42        0.01
  20873                JUNCTION     0.00     0.00   147.98     0  13:35        0.00
  20874                JUNCTION     0.00     0.00   152.22     0  09:31        0.00
  20875                JUNCTION     0.00     0.00   140.49     0  02:13        0.00
  20876                JUNCTION     0.00     0.00   133.73     0  18:00        0.00
  20877                JUNCTION     0.00     0.00   130.92     0  05:15        0.00
  20878                JUNCTION     0.01     0.01   126.57     0  21:36        0.01
  20879                JUNCTION     0.01     0.01   119.08     0  03:06        0.01
  20880                JUNCTION     0.01     0.01   121.25     0  07:00        0.01
  20881                JUNCTION     0.00     0.00   129.35     0  20:56        0.00
  20882                JUNCTION     0.00     0.00   137.65     0  05:09        0.00
  20883                JUNCTION     0.00     0.00   150.37     0  00:00        0.00
  20884                JUNCTION     0.01     0.01   121.73     0  17:59        0.01
  20885                JUNCTION     0.01     0.01   132.00     0  07:55        0.01
  20886                JUNCTION     0.01     0.01   132.84     0  07:00        0.01
  20887                JUNCTION     0.01     0.01   114.54     0  16:08        0.01
  20888                JUNCTION     0.00     0.00    51.79     0  05:58        0.00
  20889                JUNCTION     0.01     0.01    50.42     0  16:55        0.01
  20890                JUNCTION     0.01     0.01    63.80     0  05:17        0.01
  20891                JUNCTION     0.01     0.01    58.35     0  04:51        0.01
  20892                JUNCTION     0.01     0.01    54.32     0  03:46        0.01
  20893                JUNCTION     0.01     0.01    48.79     0  13:35        0.01
  20894                JUNCTION     0.01     0.01    68.84     0  10:34        0.01
  20895                JUNCTION     0.00     0.00    68.35     0  18:43        0.00
  20896                JUNCTION     0.00     0.00    63.05     0  03:35        0.00
  20897                JUNCTION     0.01     0.01    61.70     0  20:19        0.01
  20898                JUNCTION     0.01     0.01    56.79     0  01:59        0.01
  20899                JUNCTION     0.01     0.01    52.75     0  12:17        0.01
  20900                JUNCTION     0.01     0.01    49.39     0  10:06        0.01
  20901                JUNCTION     0.01     0.01    52.62     0  03:20        0.01
  20902                JUNCTION     0.00     0.00    63.54     0  01:30        0.00
  20903                JUNCTION     0.00     0.00    62.13     0  16:15        0.00
  20904                JUNCTION     0.00     0.00    60.67     0  06:28        0.00
  20905                JUNCTION     0.00     0.00    52.41     0  06:51        0.00
  20906                JUNCTION     0.01     0.01    43.25     0  08:52        0.01
  20907                JUNCTION     0.04     0.04    34.54     0  17:07        0.04
  20908                JUNCTION     0.01     0.01    36.38     0  20:15        0.01
  20909                JUNCTION     0.01     0.01    36.91     0  13:30        0.01
  20910                JUNCTION     0.02     0.02    40.92     0  13:13        0.02
  20911                JUNCTION     0.02     0.02    40.59     0  06:35        0.02
  20912                JUNCTION     0.01     0.01    40.11     0  06:13        0.01
  20913                JUNCTION     0.00     0.00    43.00     0  11:39        0.00
  20914                JUNCTION     0.01     0.01    44.28     0  03:06        0.01
  20915                JUNCTION     0.01     0.01    45.01     0  04:36        0.01
  20916                JUNCTION     0.01     0.01    45.78     0  11:27        0.01
  20917                JUNCTION     0.06     0.06    47.71     0  03:13        0.06
  20918                JUNCTION     0.00     0.00    58.15     0  17:40        0.00
  20919                JUNCTION     0.01     0.01    46.20     0  04:33        0.01
  20920                JUNCTION     0.01     0.01    47.89     0  01:35        0.01
  20921                JUNCTION     0.01     0.01    40.61     0  02:09        0.01
  20922                JUNCTION     0.01     0.01    36.12     0  17:00        0.01
  20923                JUNCTION     0.02     0.02    35.01     0  21:03        0.02
  20924                JUNCTION     0.01     0.01    46.98     0  17:05        0.01
  20925                JUNCTION     0.01     0.01    42.28     0  08:52        0.01
  20926                JUNCTION     0.02     0.02    39.45     0  10:36        0.02
  20927                JUNCTION     0.03     0.03    38.47     0  03:26        0.03
  20928                JUNCTION     0.02     0.02    38.34     0  06:27        0.02
  20929                JUNCTION     0.02     0.02    36.42     0  01:50        0.02
  20930                JUNCTION     0.02     0.02    34.66     0  12:45        0.02
  20931                JUNCTION     0.02     0.02    33.77     0  10:34        0.02
  20932                JUNCTION     0.00     0.00    27.49     0  15:38        0.00
  20933                JUNCTION     0.00     0.01    23.19     0  09:35        0.01
  20934                JUNCTION     0.00     0.00    27.67     0  01:58        0.00
  20935                JUNCTION     0.00     0.00    32.96     0  04:15        0.00
  20936                JUNCTION     0.01     0.01    22.10     0  01:57        0.01
  20937                JUNCTION     0.01     0.01    21.20     0  10:59        0.01
  20938                JUNCTION     0.01     0.01    18.86     0  05:11        0.01
  20939                JUNCTION     0.02     0.02    17.36     0  05:52        0.02
  20940                JUNCTION     0.05     0.05     0.05     0  04:04        0.05
  20941                JUNCTION     0.04     0.04     0.61     0  02:13        0.04
  20942                JUNCTION     0.03     0.03     0.24     0  19:42        0.03
  20943                JUNCTION     0.03     0.03     0.74     0  11:56        0.03
  20944                JUNCTION     0.03     0.03     1.20     0  02:06        0.03
  20945                JUNCTION     0.06     0.06    -0.33     0  09:36        0.06
  20946                JUNCTION     0.06     0.06    -0.11     0  11:52        0.06
  20947                JUNCTION     0.03     0.03     0.20     0  02:39        0.03
  20948                JUNCTION     0.03     0.03     0.40     0  01:22        0.03
  20949                JUNCTION     0.03     0.03     0.81     0  01:21        0.03
  20950                JUNCTION     0.03     0.03     1.28     0  01:03        0.03
  20951                JUNCTION     0.21     0.22     0.57     0  16:25        0.22
  20952                JUNCTION     0.02     0.02     1.67     0  01:27        0.02
  20953                JUNCTION     0.02     0.02     1.62     0  04:43        0.02
  20954                JUNCTION     0.02     0.02     1.58     0  00:08        0.02
  20955                JUNCTION     0.02     0.02     1.40     0  00:11        0.02
  20956                JUNCTION     0.02     0.02     1.37     0  01:14        0.02
  20957                JUNCTION     0.03     0.03     0.97     0  20:58        0.03
  20958                JUNCTION     0.20     0.21     0.63     0  16:24        0.21
  20959                JUNCTION     0.04     0.04     2.41     0  15:38        0.04
  20960                JUNCTION     0.01     0.01     2.45     0  02:18        0.01
  20961                JUNCTION     0.20     0.21     1.87     0  16:21        0.21
  20962                JUNCTION     0.21     0.21     1.80     0  16:23        0.21
  20963                JUNCTION     0.01     0.01     0.31     0  02:44        0.01
  20964                JUNCTION     0.02     0.02     2.64     0  04:21        0.02
  20965                JUNCTION     0.02     0.02     2.15     0  02:40        0.02
  20966                JUNCTION     0.02     0.02     1.49     0  19:23        0.02
  20967                JUNCTION     0.02     0.02     1.14     0  02:18        0.02
  20968                JUNCTION     0.04     0.04     0.91     0  03:03        0.04
  20969                JUNCTION     0.04     0.04     0.74     0  02:54        0.04
  20970                JUNCTION     0.01     0.01     2.29     0  02:10        0.01
  20971                JUNCTION     0.09     0.10     1.54     0  16:23        0.10
  20972                JUNCTION     0.01     0.01     0.96     0  02:39        0.01
  20973                JUNCTION     0.02     0.02     2.49     0  05:56        0.02
  20974                JUNCTION     0.01     0.01     2.11     0  13:00        0.01
  20975                JUNCTION     0.04     1.47     3.57     0  06:02        0.74
  2098254              JUNCTION     0.03     0.03    -0.16     0  00:13        0.03
  2098255              JUNCTION     0.06     0.06    -0.42     0  02:46        0.06
  2098256              JUNCTION     0.06     0.06    -0.37     0  06:10        0.06
  2098257              JUNCTION     0.04     0.04    -0.30     0  02:36        0.04
  2098271              JUNCTION     0.03     0.03    -0.47     0  13:55        0.03
  2098272              JUNCTION     0.03     0.03    -0.97     0  01:43        0.03
  2098273              JUNCTION     0.03     0.03    -1.42     0  01:59        0.03
  2098284              JUNCTION     0.00     0.00    49.89     0  01:03        0.00
  2098285              JUNCTION     0.01     0.01    47.14     0  17:49        0.01
  2098286              JUNCTION     0.01     0.01    49.02     0  19:39        0.01
  2098287              JUNCTION     0.01     0.01    49.17     0  02:03        0.01
  2098323              JUNCTION     0.00     0.00    39.54     0  18:08        0.00
  2098324              JUNCTION     0.01     0.01    40.54     0  01:20        0.01
  2098325              JUNCTION     0.00     0.00    43.91     0  03:51        0.00
  2098326              JUNCTION     0.02     0.02    39.42     0  15:20        0.02
  2098327              JUNCTION     0.01     0.01    40.02     0  13:39        0.01
  2098328              JUNCTION     0.01     0.01    43.23     0  09:41        0.01
  2098329              JUNCTION     0.01     0.01    45.01     0  00:16        0.01
  2098330              JUNCTION     0.01     0.01    46.86     0  00:14        0.01
  2098331              JUNCTION     0.01     0.01    48.79     0  00:12        0.01
  2098332              JUNCTION     0.01     0.01    49.50     0  00:09        0.01
  2098333              JUNCTION     0.01     0.01    50.25     0  00:01        0.01
  2098334              JUNCTION     0.01     0.01    47.94     0  17:58        0.01
  2098335              JUNCTION     0.01     0.01    49.41     0  20:04        0.01
  2098336              JUNCTION     0.01     0.01    49.66     0  10:50        0.01
  2098337              JUNCTION     0.00     0.00    51.06     0  02:13        0.00
  2099560              JUNCTION     0.01     0.01    68.09     0  18:22        0.01
  2099561              JUNCTION     0.01     0.01    67.43     0  04:58        0.01
  2099562              JUNCTION     0.01     0.01    62.22     0  04:04        0.01
  2099563              JUNCTION     0.01     0.01    63.39     0  05:14        0.01
  2099564              JUNCTION     0.00     0.00    74.11     0  10:45        0.00
  2099565              JUNCTION     0.00     0.00    74.10     0  03:26        0.00
  2099600              JUNCTION     0.01     0.01    65.42     0  03:10        0.01
  2099601              JUNCTION     0.01     0.01    64.37     0  06:41        0.01
  2099602              JUNCTION     0.00     0.00    79.97     0  05:00        0.00
  2099603              JUNCTION     0.00     0.00    77.91     0  02:23        0.00
  2099604              JUNCTION     0.00     0.00    78.13     0  11:52        0.00
  2099605              JUNCTION     0.00     0.00    81.74     0  06:24        0.00
  2590941              JUNCTION     0.00     0.00     2.02     0  00:57        0.00
  2590942              JUNCTION     0.01     0.01     2.05     0  00:34        0.01
  2590943              JUNCTION     0.01     0.01     2.17     0  00:47        0.01
  2590944              JUNCTION     0.01     0.01     1.88     0  04:19        0.01
  2590945              JUNCTION     0.01     0.01     1.81     0  04:07        0.01
  2590946              JUNCTION     0.01     0.01     1.56     0  07:12        0.01
  2590947              JUNCTION     0.01     0.01     1.33     0  01:59        0.01
  2590948              JUNCTION     0.02     0.02     1.18     0  22:26        0.02
  2594933              JUNCTION     4.42    18.57    20.16     0  15:34       17.42
  2594934              JUNCTION    16.51    19.27    20.32     0  15:34       19.27
  2594936              JUNCTION     1.94    11.99    14.11     0  10:34       11.27
  2594937              JUNCTION     2.75    12.58    12.94     0  06:24       11.89
  2594938              JUNCTION     3.16    17.72    18.01     0  07:01       12.33
  2594939              JUNCTION     3.16    16.72    17.03     0  07:01       11.97
  2594940              JUNCTION     4.53    18.74    20.25     0  15:34       17.70
  26309                JUNCTION     0.00     0.00     1.65     0  00:00        0.00
  26310                JUNCTION     0.00     0.00     0.50     0  00:00        0.00
  26373                JUNCTION     0.03     0.03     0.73     0  01:34        0.03
  26374                JUNCTION     0.05     0.05     0.34     0  01:33        0.05
  26375                JUNCTION     0.12     0.17     1.58     0  19:25        0.17
  26376                JUNCTION     0.13     0.18     1.75     0  19:24        0.18
  26377                JUNCTION     0.14     0.18     2.15     0  19:21        0.18
  26378                JUNCTION     0.02     0.02     0.89     0  01:46        0.02
  26379                JUNCTION     0.02     0.02     0.53     0  05:18        0.02
  26380                JUNCTION     0.02     0.02     0.99     0  02:38        0.02
  26381                JUNCTION     0.02     0.02     0.49     0  02:52        0.02
  26382                JUNCTION     0.01     0.01     1.90     0  01:36        0.01
  26383                JUNCTION     0.01     0.01     1.58     0  01:42        0.01
  26384                JUNCTION     0.02     0.02     0.94     0  03:31        0.02
  26385                JUNCTION     0.02     0.02     0.78     0  12:14        0.02
  26386                JUNCTION     0.01     0.01     0.73     0  01:12        0.01
  26387                JUNCTION     0.02     0.02     0.41     0  01:25        0.02
  26388                JUNCTION     0.01     0.01     0.28     0  01:50        0.01
  26389                JUNCTION     0.02     0.02     1.24     0  00:49        0.02
  26390                JUNCTION     0.03     0.03    -0.32     0  03:34        0.03
  26391                JUNCTION     0.01     0.01     1.03     0  02:22        0.01
  26392                JUNCTION     0.01     0.01     1.17     0  01:44        0.01
  26393                JUNCTION     0.02     0.02     0.61     0  22:21        0.02
  26394                JUNCTION     0.36     0.45     1.07     0  16:48        0.44
  26395                JUNCTION     0.06     0.09     0.82     0  16:49        0.09
  26396                JUNCTION     0.01     0.01     1.22     0  03:45        0.01
  26397                JUNCTION     0.02     0.02     0.94     0  04:08        0.02
  26398                JUNCTION     0.02     0.02     0.60     0  08:35        0.02
  26399                JUNCTION     0.02     0.02     0.33     0  04:25        0.02
  26400                JUNCTION     0.01     0.01     1.17     0  07:57        0.01
  26401                JUNCTION     0.01     0.01     1.38     0  01:51        0.01
  26402                JUNCTION     0.01     0.01     0.78     0  02:37        0.01
  26403                JUNCTION     0.03     0.03     0.06     0  21:23        0.03
  26404                JUNCTION     0.06     0.07     0.46     0  08:11        0.07
  26405                JUNCTION     0.01     0.01     1.29     0  00:46        0.01
  26406                JUNCTION     0.06     0.07     0.12     0  08:12        0.07
  26407                JUNCTION     0.01     0.01     1.45     0  01:19        0.01
  26408                JUNCTION     0.20     0.21    -0.32     0  13:10        0.21
  26409                JUNCTION     0.17     0.19    -0.43     0  13:11        0.18
  26410                JUNCTION     0.19     0.20    -0.54     0  13:13        0.20
  26411                JUNCTION     0.02     0.02     0.58     0  01:36        0.02
  26412                JUNCTION     0.01     0.01     1.40     0  01:25        0.01
  26413                JUNCTION     0.03     0.03     0.37     0  09:11        0.03
  26414                JUNCTION     0.08     0.10     0.06     0  18:10        0.10
  26415                JUNCTION     0.01     0.01     1.44     0  01:58        0.01
  26416                JUNCTION     0.01     0.01     1.01     0  03:49        0.01
  26417                JUNCTION     0.01     0.01     1.24     0  02:36        0.01
  26418                JUNCTION     0.01     0.01     0.71     0  02:38        0.01
  26419                JUNCTION     0.01     0.01     1.13     0  01:56        0.01
  26421                JUNCTION     0.01     0.01     0.70     0  02:42        0.01
  26422                JUNCTION     0.01     0.01     0.07     0  02:47        0.01
  26423                JUNCTION     0.01     0.01     0.31     0  10:06        0.01
  26424                JUNCTION     0.01     0.01     0.18     0  03:31        0.01
  26425                JUNCTION     0.01     0.01     1.74     0  02:11        0.01
  26426                JUNCTION     0.01     0.01     1.22     0  03:08        0.01
  26427                JUNCTION     0.02     0.02    -0.15     0  06:09        0.02
  26428                JUNCTION     0.02     0.02    -0.48     0  04:42        0.02
  26429                JUNCTION     0.02     0.02     0.20     0  03:27        0.02
  26430                JUNCTION     0.01     0.01     1.20     0  01:36        0.01
  26431                JUNCTION     0.01     0.01     0.54     0  16:51        0.01
  26432                JUNCTION     0.01     0.01     1.25     0  05:44        0.01
  26433                JUNCTION     0.01     0.01     0.88     0  11:33        0.01
  26434                JUNCTION     0.02     0.02    -0.06     0  03:27        0.02
  26435                JUNCTION     0.01     0.01     1.47     0  02:42        0.01
  26436                JUNCTION     0.01     0.01     0.93     0  02:53        0.01
  26437                JUNCTION     0.01     0.01     0.67     0  16:00        0.01
  26438                JUNCTION     0.01     0.01     1.59     0  01:53        0.01
  26439                JUNCTION     0.01     0.01     1.25     0  03:25        0.01
  26440                JUNCTION     0.01     0.01     0.67     0  10:27        0.01
  26441                JUNCTION     0.01     0.01     1.35     0  05:48        0.01
  26442                JUNCTION     0.01     0.01     1.53     0  02:20        0.01
  26443                JUNCTION     0.01     0.01     1.12     0  03:45        0.01
  26444                JUNCTION     0.01     0.01     1.26     0  01:51        0.01
  26445                JUNCTION     0.01     0.01     0.87     0  02:37        0.01
  26446                JUNCTION     0.01     0.01     1.50     0  02:47        0.01
  26447                JUNCTION     0.01     0.01     0.95     0  04:57        0.01
  26448                JUNCTION     0.01     0.01     0.58     0  04:29        0.01
  26449                JUNCTION     0.02     0.02     0.32     0  04:02        0.02
  26450                JUNCTION     0.01     0.01     1.27     0  02:41        0.01
  26451                JUNCTION     0.04     0.04    -0.52     0  16:36        0.04
  26452                JUNCTION     0.03     0.03    -0.51     0  03:14        0.03
  26453                JUNCTION     0.01     0.01     1.59     0  02:08        0.01
  26454                JUNCTION     0.01     0.01     0.71     0  03:05        0.01
  26455                JUNCTION     0.03     0.03    -0.16     0  04:20        0.03
  26456                JUNCTION     0.01     0.01     1.52     0  02:34        0.01
  26457                JUNCTION     0.01     0.01     0.95     0  02:57        0.01
  26458                JUNCTION     0.01     0.01     1.13     0  01:53        0.01
  26459                JUNCTION     0.02     0.02     0.37     0  04:16        0.02
  26460                JUNCTION     0.01     0.01     0.99     0  02:25        0.01
  26461                JUNCTION     0.04     0.04     0.45     0  01:37        0.04
  26462                JUNCTION     0.04     0.04    -0.08     0  01:53        0.04
  26463                JUNCTION     0.04     0.04    -0.67     0  01:56        0.04
  26464                JUNCTION     0.04     0.04    -0.93     0  02:00        0.04
  26510                JUNCTION     0.01     0.01     0.91     0  03:43        0.01
  26511                JUNCTION     0.02     0.02     0.65     0  20:45        0.02
  26512                JUNCTION     0.01     0.01     1.75     0  11:29        0.01
  26513                JUNCTION     0.05     0.07     1.32     0  15:41        0.06
  26514                JUNCTION     0.06     0.09     1.53     0  15:40        0.09
  26515                JUNCTION     0.00     0.00     2.24     0  00:00        0.00
  26516                JUNCTION     0.01     0.01     1.61     0  00:32        0.01
  26517                JUNCTION     0.01     0.01     1.32     0  01:53        0.01
  26518                JUNCTION     0.00     0.00     1.65     0  00:00        0.00
  26519                JUNCTION     0.00     0.00     1.01     0  00:00        0.00
  26520                JUNCTION     0.01     0.01     0.77     0  00:48        0.01
  26521                JUNCTION     0.01     0.01     0.58     0  02:43        0.01
  26522                JUNCTION     0.00     0.00     1.88     0  00:00        0.00
  26523                JUNCTION     0.00     0.00     1.63     0  00:00        0.00
  26524                JUNCTION     0.00     0.00     1.23     0  00:00        0.00
  26525                JUNCTION     0.06     0.06     0.22     0  02:06        0.06
  26526                JUNCTION     0.07     0.07    -0.60     0  01:18        0.07
  26527                JUNCTION     0.02     0.02     0.13     0  20:57        0.02
  26528                JUNCTION     0.01     0.01     0.56     0  02:01        0.01
  26529                JUNCTION     0.01     0.01     0.81     0  02:53        0.01
  26530                JUNCTION     0.01     0.01     1.04     0  01:36        0.01
  26531                JUNCTION     0.02     0.02    -0.25     0  02:36        0.02
  26532                JUNCTION     0.01     0.01     0.53     0  07:57        0.01
  26533                JUNCTION     0.01     0.01     1.09     0  03:14        0.01
  26534                JUNCTION     0.03     0.03    -0.66     0  03:49        0.03
  26535                JUNCTION     0.01     0.01    -0.08     0  03:28        0.01
  26536                JUNCTION     0.03     0.03    -0.77     0  20:59        0.03
  26537                JUNCTION     0.06     0.06    -0.80     0  12:05        0.06
  26538                JUNCTION     0.06     0.06     0.51     0  01:08        0.06
  26539                JUNCTION     0.01     0.01     1.00     0  01:07        0.01
  26540                JUNCTION     0.00     0.00     2.15     0  00:00        0.00
  26541                JUNCTION     0.06     0.06     0.79     0  13:28        0.06
  26542                JUNCTION     0.04     0.04     0.99     0  01:22        0.04
  26543                JUNCTION     0.04     0.04     1.86     0  00:19        0.04
  26544                JUNCTION     0.04     0.06     0.82     0  06:53        0.06
  26545                JUNCTION     0.01     0.01     0.51     0  02:45        0.01
  26546                JUNCTION     0.01     0.01     1.06     0  02:30        0.01
  26547                JUNCTION     0.02     0.02     1.40     0  01:26        0.02
  26548                JUNCTION     0.02     0.02     0.99     0  02:01        0.02
  26549                JUNCTION     0.08     0.11     0.33     0  18:07        0.10
  26550                JUNCTION     0.08     0.11     0.60     0  18:05        0.11
  26551                JUNCTION     0.01     0.01     1.02     0  01:06        0.01
  26552                JUNCTION     0.01     0.01     0.74     0  03:10        0.01
  26553                JUNCTION     0.03     0.03    -0.58     0  03:13        0.03
  26554                JUNCTION     0.01     0.01     0.05     0  03:26        0.01
  26555                JUNCTION     0.01     0.01     0.29     0  12:51        0.01
  26556                JUNCTION     0.01     0.01     0.87     0  03:00        0.01
  26557                JUNCTION     0.01     0.01     1.30     0  01:34        0.01
  26558                JUNCTION     0.06     0.09     1.15     0  07:32        0.09
  26559                JUNCTION     0.02     0.02     1.05     0  15:36        0.02
  26560                JUNCTION     0.02     0.02     0.76     0  00:19        0.02
  26561                JUNCTION     0.07     0.09     0.28     0  07:33        0.09
  26562                JUNCTION     0.00     0.00    -0.35     0  00:00        0.00
  26563                JUNCTION     0.01     0.01     1.22     0  04:15        0.01
  26564                JUNCTION     0.19     0.20     1.49     0  02:23        0.20
  26565                JUNCTION     0.01     0.01     0.89     0  00:50        0.01
  26566                JUNCTION     0.02     0.02     0.64     0  01:49        0.02
  26567                JUNCTION     0.01     0.01     0.59     0  02:04        0.01
  26568                JUNCTION     0.02     0.02    -0.03     0  02:21        0.02
  26569                JUNCTION     0.01     0.01     0.69     0  01:41        0.01
  26570                JUNCTION     0.01     0.01     0.11     0  02:08        0.01
  26571                JUNCTION     0.03     0.03     0.53     0  02:16        0.03
  26572                JUNCTION     0.02     0.02     0.14     0  02:17        0.02
  26573                JUNCTION     0.03     0.03    -0.38     0  02:17        0.03
  26574                JUNCTION     0.03     0.03    -0.49     0  02:19        0.03
  26575                JUNCTION     0.03     0.04    -0.63     0  23:01        0.04
  26576                JUNCTION     0.02     0.02    -0.03     0  01:45        0.02
  26577                JUNCTION     0.04     0.04    -0.86     0  02:16        0.04
  26578                JUNCTION     0.03     0.03    -0.48     0  02:21        0.03
  26579                JUNCTION     0.01     0.01     1.05     0  03:35        0.01
  26580                JUNCTION     0.03     0.03    -0.80     0  03:09        0.03
  26581                JUNCTION     0.01     0.01     0.93     0  01:36        0.01
  26582                JUNCTION     0.01     0.01     0.51     0  01:38        0.01
  26583                JUNCTION     0.01     0.01     0.17     0  01:40        0.01
  26584                JUNCTION     0.32     0.33     0.54     0  03:05        0.33
  26585                JUNCTION     0.01     0.01     0.21     0  01:09        0.01
  26586                JUNCTION     0.01     0.01     1.85     0  01:55        0.01
  26587                JUNCTION     0.01     0.01     1.43     0  02:40        0.01
  26588                JUNCTION     0.02     0.02     0.83     0  01:10        0.02
  26589                JUNCTION     0.02     0.02     0.32     0  02:07        0.02
  26590                JUNCTION     0.01     0.01     1.14     0  01:58        0.01
  26591                JUNCTION     0.01     0.01     1.58     0  02:28        0.01
  26592                JUNCTION     0.01     0.01     1.90     0  02:28        0.01
  26593                JUNCTION     0.03     0.03    -0.37     0  20:03        0.03
  26594                JUNCTION     0.01     0.01     0.84     0  06:29        0.01
  26595                JUNCTION     0.01     0.01     2.07     0  02:22        0.01
  26596                JUNCTION     0.05     0.15     1.81     0  19:05        0.15
  26597                JUNCTION     0.01     0.03     0.48     0  16:44        0.03
  26598                JUNCTION     0.08     0.14     0.48     0  07:07        0.14
  26599                JUNCTION     0.01     0.01     0.99     0  02:40        0.01
[...]
  FPI_T01_11                 21.12     21.12     21.20      0.23         0.34
  FPI_T01_12                 21.12     21.12     22.47      5.45         9.63
  FPI_T01_13                 22.39     22.39     22.59      0.01         0.01
  FPI_T01_14                 22.17     22.48     22.17      0.01         2.15
  FPI_T01_2                  22.15     22.15     22.31      0.13         0.35
  FPI_T01_3                  22.18     22.18     22.31      1.70         0.93
  FPI_T01_4                  22.18     22.18     22.20      7.38         8.26
  FPI_T01_5                  21.67     21.67     22.11      0.01         0.01
  FPI_T01_6                  21.45     21.45     21.68      2.17         1.42
  FPI_T01_7                  21.34     21.39     21.45     11.28         7.21
  FPI_T01_8                  22.48     22.48     22.48     20.23        11.57
  FPI_T01_9                  21.33     21.33     21.52      0.01         0.01
  MPI_1295529_1               0.01     23.94      0.01     23.94         0.01
  MPI_1295542_2               0.48      0.57     21.60      0.01         0.01
  MPI_132875_1               21.73     22.02     21.83      8.29         4.94
  MPI_132887_1               18.99     22.57     19.66     15.03         2.79
  MPI_133300_2               21.36     21.36     21.72      0.08         0.19
  MPI_19972_1                 0.01     23.77      0.01     23.77         0.01
  MPI_23545_1                 0.01      0.01     23.52      0.01         0.01
  MPI_235503_1               22.83     23.15     22.90      0.01        15.57
  MPI_24629_2                 0.01      0.01     15.62      0.01         0.01
  MPI_25560_1                15.83     17.93     20.89      4.33         5.48
  MPI_25584_1                 0.01      0.01     23.70     11.28         0.01
  MPI_25590_1                 0.01      0.01     23.50      7.51         0.01
  MPI_25593_1                19.39     19.42     23.61     11.07        10.45
  MPI_25597_1                13.24     13.29     23.22      2.07         2.40
  MPI_25597_2                23.23     23.23     23.53      3.16         3.02
  MPI_25604_1                 0.35      0.35     23.66      5.75         0.01
  MPI_25615_1                 0.01      9.03      0.01      9.31         0.01
  MPI_25696_1                21.69     21.69     21.83      0.01         0.21
  MPI_25726_1                23.04     23.05     23.09      0.01         0.01
  MPI_2820096_1              23.17     23.17     23.25      0.01         7.01
  MPI_31881_1                20.11     23.14     20.28      4.57         2.86
  MPI_3189747_1              23.93     23.93     23.93     23.93        23.93
  MPI_32120_1                13.52     13.52     23.93     13.86         0.01
  MPI_32697_1                 0.01      0.01     23.37      0.01         0.01
  MPI_33649_1                 0.01      0.01     22.58      0.01         0.01
  MPI_33682_1                 0.01      0.01     23.48      0.01         0.01
  MPI_3453195_1               0.01     23.28      0.01     23.27         0.01
  MPI_3453229_1               5.87      6.93     19.22     12.15         0.01
  MPI_348660_1               23.68     23.81     23.70     17.94         5.37
  MPI_3566065_1              16.96     17.62     21.13      0.01         0.11
  MPI_3566087                 8.51      8.78     20.50      0.01         2.30
  MPI_3566095                 6.87      6.90     20.27      0.47         0.26
  MPI_3568327_1               0.01      0.01     22.37      0.01         0.01
  MPI_36223_1                19.86     22.30     20.40      2.98        16.96
  MPI_3749402_1               2.66      2.66     23.34      2.92         2.65
  MPI_3749497_1              20.39     20.39     22.20      0.01         5.88
  MPI_3822281_1               4.83      4.83     23.20      0.01         0.31
  MPI_3825301_1              23.53     23.54     23.69      0.01         0.16
  MPI_3828121_1              22.49     22.49     22.49      5.12         8.36
  MPI_3828121_2              22.49     22.49     22.50     20.44        17.54
  MPI_3828123                22.59     22.59     22.84     12.33        12.91
  MPI_3828547_1              22.17     22.23     22.17     22.11        19.35
  MPI_3828938                 2.52      2.52     23.20      0.01         0.01
  MPI_3828945_1              21.76     21.76     21.85      0.01         6.26
  MPI_3832048_1              22.48     22.48     22.48      0.01         7.62
  MPI_3832049_1              22.44     22.46     22.75      3.93         3.92
  MPI_3834445_1              23.65     23.65     23.65      0.01         0.02
  MPI_3834537_1              20.83     20.88     22.87     19.27        14.79
  MPI_3834540_1               9.93     10.32     20.33      0.01         0.70
  MPI_3834565_1               8.20      9.65     20.07      1.76         1.43
  MPI_3834569_1               6.16      6.18     23.51      2.75         2.78
  MPI_3834593_1              11.03     11.03     23.65      0.01         1.06
  MPI_3834618_1               2.07      2.08     23.34      0.01         0.04
  MPI_3834686_1              12.59     13.41     18.89      0.01         1.74
  MPI_3834725_1              21.90     21.91     22.68     11.97        10.95
  MPI_3834734_1              17.33     17.36     23.06      0.01         1.59
  MPI_3835240_1              16.31     16.31     23.77     10.21         0.10
  MPI_3835253_1               3.59      3.65     10.11      3.15         1.83
  MPI_3835278_1              17.44     17.47     23.69     12.78        12.50
  MPI_3835296_1              13.84     13.85     23.45      0.01         0.05
  MPI_3835311_1              22.38     22.40     22.70      0.01         0.86
  MPI_3835318_1              18.11     18.40     21.30      7.65         1.07
  MPI_3837531_1              19.53     19.53     20.67      0.01         2.14
  MPI_3850885_1              22.74     22.74     22.74      4.32         8.72
  MPI_3851453_1              22.33     22.33     23.91      0.01         0.01
  MPI_3852790                 4.51      4.91      4.51      5.36         0.01
  MPI_385304_1               19.92     22.88     20.12      1.50         9.08
  MPI_3853187_1               0.01      0.01     23.31      0.01         0.01
  MPI_47908_1                 0.01      3.19      0.01      7.10         0.01
  MPI_47939_1                23.43     23.63     23.54      0.01         0.08
  MPI_708364_1                0.01      0.01     22.52      0.01         0.01
  MPI_712308_1               23.32     23.32     23.36      0.01         9.40
  MPI_712309_1               23.11     23.11     23.28      0.01         7.17
  MPI_712310_1               23.13     23.13     23.43      0.01         4.39
  MPI_712311_1               23.32     23.32     23.58      0.01         0.01
  MPI_712312_1               23.59     23.59     23.79      0.01         4.68
  MPI_712313_1               22.90     22.90     23.18      0.01         4.99
  MPI_712314_1               22.93     22.93     23.02      0.01         4.05
  MPI_715124_1                0.01      0.01     23.56     14.34         0.01
  MPI_739218_1               22.29     22.51     22.30      0.01         6.35
  MPI_R03_3_1                22.58     22.58     23.77     10.22        10.22
  
  
  ***************
  Pumping Summary
  ***************
  
  ---------------------------------------------------------------------------------------------------------
                                                  Min       Avg       Max     Total     Power    % Time Off
                        Percent   Number of      Flow      Flow      Flow    Volume     Usage    Pump Curve
  Pump                 Utilized   Start-Ups       LPS       LPS       LPS  10^6 ltr     Kw-hr    Low   High
  ---------------------------------------------------------------------------------------------------------
  FPU_20262_1             30.69         811      0.00     87.00     87.00     2.307     69.28    0.0    0.0
  FPU_33810_1             24.45         214      0.00     80.00     80.00     1.690     79.81    0.0    0.0
  FPU_3836523_1           49.81         725      0.00    285.00    285.00    12.266    542.44    0.0    0.0
  FPU_44662_1             34.62         373      0.00    495.00    495.00    14.806    793.74    0.0    0.0
  FPU_45803_1             60.26         331      0.00    249.54    326.82    13.035    765.45    0.0    4.6
  FPU_45803_2              0.17           2      0.00    195.62    260.66     0.029      2.07    0.0    0.0
  FPU_45841_3             58.81         500      0.00    108.00    108.00     5.488    319.45    0.0    0.0
  FPU_45861_1             52.93         247      0.00     37.00     37.00     1.692     78.87    0.0    0.0
  FPU_45890_1             21.38         202      0.00    258.58    326.82     4.793    274.09    0.0    2.6
  FPU_45890_2              0.00           0      0.00      0.00      0.00     0.000      0.00    0.0    0.0
  FPU_NEW_S4_1M           35.12         532      0.00    139.14    167.42     4.228    249.17    0.0    3.3
  FPU_NEW_S4_2M            0.00           0      0.00      0.00      0.00     0.000      0.00    0.0    0.0
  FPU_W5_PUMP1            66.04         120      0.00     14.00     14.00     0.799     55.30    0.0    0.0
  MPU_1294808_1           22.05         123      0.00      7.34     14.00     0.140      4.06    0.0    0.2
  MPU_1294808_2            0.00           0      0.00      0.00      0.00     0.000      0.00    0.0    0.0
  MPU_1490090_1           99.92           1      0.00      4.61      4.74     0.398      0.92    0.0    0.0
  MPU_20376_1             10.44         227      0.00     35.95     44.39     0.320      5.43    0.0    0.0
  MPU_20376_2              0.00           0      0.00      0.00      0.00     0.000      0.00    0.0    0.0
  MPU_20461_1              0.77          29      0.00     45.23     45.80     0.030      0.25    0.0    0.0
  MPU_20782_1             99.09           1      0.00      0.33      0.33     0.028      0.12    0.0    0.0
  MPU_23622_1             46.23         446      0.00     32.97     44.85     1.317     27.15    0.0   10.6
  MPU_23664_1             45.52         429      0.00     49.18     65.81     1.953     98.05    0.0   13.9
  MPU_23664_2              0.00           0      0.00      0.00      0.00     0.000      0.00    0.0    0.0
  MPU_23665_1             98.39           1      0.00      0.83      0.83     0.071      0.02    0.0    0.0
  MPU_26420_1            100.00           1      0.00      0.07      0.07     0.006      0.00    0.0    0.0
  MPU_2820088_1          100.00           1      0.00      0.04      0.04     0.003      0.04    0.0    0.0
  MPU_2820090_1          100.00           1      0.00      0.11      0.11     0.010      0.13    0.0    0.0
  MPU_28579_1             93.18           7      0.00      0.66      6.07     0.051      2.54    0.0    0.8
  MPU_28579_2             82.24           1      0.00      0.53      0.83     0.037      1.99    0.0    0.0
  MPU_30609_1             18.38         128      0.00     10.78     50.00     0.171      8.95    0.0    0.2
  MPU_3081556_1           99.58           1      0.00      4.41      4.41     0.380      3.64    0.0    0.0
  MPU_31024_1             49.91         598      0.00     24.36     25.32     1.050      8.47    0.0    0.0
  MPU_31024_2              0.00           0      0.00      0.00      0.00     0.000      0.00    0.0    0.0
  MPU_31029_1             57.76         244      0.00     12.25     12.55     0.612     30.00    0.0    0.0
  MPU_31047_1             10.04          97      0.00      5.98     36.90     0.052      1.76    0.0    0.0
  MPU_33809_1             19.23          83      0.00     35.02     44.03     0.584     35.19    0.0    4.0
  MPU_33809_2              0.00           0      0.00      0.00      0.00     0.000      0.00    0.0    0.0
  MPU_34168_1             22.68         102      0.00    167.78    167.81     3.288    194.16    0.0   99.8
  MPU_34168_2              0.00           0      0.00      0.00      0.00     0.000      0.00    0.0    0.0
  MPU_34219_1             12.28         126      0.00     15.08     16.00     0.160      3.02    0.0    9.9
  MPU_34219_2              0.00           0      0.00      0.00      0.00     0.000      0.00    0.0    0.0
  MPU_34598_1             10.05          37      0.00     10.29     25.41     0.089      1.93    0.0    0.0
  MPU_34598_2              0.00           0      0.00      0.00      0.00     0.000      0.00    0.0    0.0
  MPU_34602_1             10.78         280      0.00    111.13    167.81     1.042    112.25    0.0    0.5
  MPU_34602_2              0.00           0      0.00      0.00      0.00     0.000      0.00    0.0    0.0
  MPU_3749482_1          100.00           1      0.00      0.04      0.04     0.004      0.02    0.0    0.0
  MPU_3828462_1           26.94          92      0.00     40.61     70.00     0.950     57.26    0.0   12.2
  MPU_3828462_2            0.00           0      0.00      0.00      0.00     0.000      0.00    0.0    0.0
  MPU_3837523_1            0.00           0      0.00      0.00      0.00     0.000      0.00    0.0    0.0
  MPU_3851422_1           99.67           1      0.00      6.74      6.74     0.581     27.50    0.0    0.0
  MPU_3852367_1          100.00           1      0.00      3.98      3.98     0.344     66.20    0.0    0.0
  MPU_3852788_1           18.96         146      0.00     27.40     34.87     0.449      6.11    0.0    0.0
  MPU_3852788_2            0.00           0      0.00      0.00      0.00     0.000      0.00    0.0    0.0
  MPU_3853030_1          100.00           1      0.00      0.06      0.06     0.005      0.03    0.0    0.0
  MPU_3853154_1            0.00           0      0.00      0.00      0.00     0.000      0.00    0.0    0.0
  MPU_44733_1             27.20          82      0.00     18.68     49.31     0.402     16.30    0.0    3.8
  MPU_44737_1             26.16         584      0.00     17.73     49.31     0.406     16.20    0.0    0.1
  MPU_44781_1             44.14         551      0.00     16.74     18.18     0.640     18.70    0.0    0.0
  MPU_45175_1             11.82         162      0.00     30.08     49.76     0.312     10.87    0.0    1.4
  MPU_45175_2              0.00           0      0.00      0.00      0.00     0.000      0.00    0.0    0.0
  MPU_45740_1              5.32         141      0.00     84.03     95.14     0.395     12.52    0.0   34.3
  MPU_45740_2              0.00           0      0.00      0.00      0.00     0.000      0.00    0.0    0.0
  MPU_45741_1             24.00         299      0.00     28.76     45.02     0.597     13.02    0.0    0.0
  MPU_45741_2              0.00           0      0.00      0.00      0.00     0.000      0.00    0.0    0.0
  MPU_45744_1             47.04         100      0.00      9.37     45.87     0.377     12.79    0.0    0.0
  MPU_45744_2              0.00           0      0.00      0.00      0.00     0.000      0.00    0.0    0.0
  MPU_45745_1              3.55          82      0.00     41.57     46.39     0.128      1.47    0.0    0.5
  MPU_45746_2             14.47         200      0.00     17.09     45.16     0.211      5.44    0.0    0.0
  MPU_45779_1              8.02         195      0.00     35.63     46.39     0.250      4.13    0.0    0.5
  MPU_45781_1             31.85         250      0.00     17.25     42.77     0.481     13.55    0.0    0.0
  MPU_45781_2              0.00           0      0.00      0.00      0.00     0.000      0.00    0.0    0.0
  MPU_45785_1              8.48         266      0.00     42.56     46.39     0.314      3.23    0.0    0.2
  MPU_45817                4.88         130      0.00     25.38     44.85     0.107      3.00    0.0    1.0
  MPU_45833_1              5.87          81      0.00     14.29     46.39     0.073      2.24    0.0    0.1
  MPU_45844_1             17.23         224      0.00     20.61     42.16     0.311      7.83    0.0    0.0
  MPU_45847_1             17.10         219      0.00     20.49     49.31     0.303     12.49    0.0    0.5
  MPU_45854_1             31.40         112      0.00     18.68     46.39     0.505     14.11    0.0    0.4
  MPU_45854_2              0.00           0      0.00      0.00      0.00     0.000      0.00    0.0    0.0
  MPU_45855_1             10.42         321      0.00     34.82     37.50     0.317      9.41    0.0   43.6
  MPU_45855_2              0.00           0      0.00      0.00      0.00     0.000      0.00    0.0    0.0
  MPU_45856_1             65.00         212      0.00     15.91     50.00     0.895     41.40    0.0    1.5
  MPU_45857_1             61.84         228      0.00     26.27     45.00     1.404     59.19    0.0    0.1
  MPU_45857_2              0.00           0      0.00      0.00      0.00     0.000      0.00    0.0    0.0
  MPU_45859_1             43.72         211      0.00     21.95     49.31     0.826     33.13    0.0    0.2
  MPU_45859_2              0.00           0      0.00      0.00      0.00     0.000      0.00    0.0    0.0
  MPU_45860_1              1.66          66      0.00     45.37     46.03     0.065      0.53    0.0    0.0
  MPU_45882_1              8.95         113      0.00     25.97     44.23     0.200      4.44    0.0    0.0
  MPU_45892_1             38.58          59      0.00     10.61     45.97     0.353     10.25    0.0    0.0
  MPU_45892_2              0.00           0      0.00      0.00      0.00     0.000      0.00    0.0    0.0
  MPU_45911_1             23.36          25      0.00      3.00      3.00     0.061      0.47    0.0   99.4
  MPU_46822_1             19.65          42      0.00      2.95     46.39     0.050      1.90    0.0    0.1
  MPU_46826_1             35.23         224      0.00      7.99     25.00     0.242     18.21    0.0    0.2
  MPU_46826_2              0.00           0      0.00      0.00      0.00     0.000      0.00    0.0    0.0
  MPU_47302_1              8.51          25      0.00      2.64      4.33     0.019      1.44    0.0    0.5
  MPU_47302_2              0.00           0      0.00      0.00      0.00     0.000      0.00    0.0    0.0
  MPU_708355               0.00           0      0.00      0.00      0.00     0.000      0.00    0.0    0.0
  MPU_708363_1             7.33          15      0.00      1.07      3.00     0.007      0.46    0.0    0.5
  MPU_708363_2             0.00           0      0.00      0.00      0.00     0.000      0.00    0.0    0.0
  MPU_708546_1            29.42          65      0.00     14.35     16.46     0.364      3.34    0.0    0.0
  MPU_708546_2             0.00           0      0.00      0.00      0.00     0.000      0.00    0.0    0.0
  MPU_712322_1           100.00           1      0.00      0.04      0.04     0.003      0.04    0.0    0.0
  MPU_712324_1           100.00           1      0.00      0.04      0.04     0.004      0.04    0.0    0.0
  MPU_712325_1           100.00           1      0.00      0.04      0.04     0.004      0.05    0.0    0.0
  MPU_712326_1           100.00           1      0.00      0.04      0.04     0.003      0.04    0.0    0.0
  MPU_712327_1           100.00           1      0.00      0.04      0.04     0.003      0.04    0.0    0.0
  MPU_712328_1           100.00           1      0.00      0.04      0.04     0.004      0.03    0.0    0.0
  MPU_712329_1           100.00           1      0.00      0.12      0.12     0.010      0.12    0.0    0.0
  MPU_715117_1            59.94          80      0.00      7.00     12.42     0.362     10.92    0.0    0.0
  MPU_715117_2             0.00           0      0.00      0.00      0.00     0.000      0.00    0.0    0.0
  MPU_NEW_PS_R3_1         42.62         218      0.00     35.59     67.69     1.261     70.45    0.0    0.0
  MPU_NEW_PS_R3_2          0.00           1      0.00     67.69     67.69     0.000      0.00    0.0  100.0
  

  Analysis begun on:  Wed Jun 24 14:44:43 2026
  Analysis ended on:  Wed Jun 24 14:48:16 2026
  Total elapsed time: 00:03:33