
  EPA STORM WATER MANAGEMENT MODEL - VERSION 5.2 (Build 5.2.4)
  ------------------------------------------------------------

  WARNING 02: maximum depth increased for Node 970
  
  ****************
  Analysis Options
  ****************
  Flow Units ............... GPM
  Process Models:
    Rainfall/Runoff ........ NO
    RDII ................... NO
    Snowmelt ............... NO
    Groundwater ............ NO
    Flow Routing ........... YES
    Ponding Allowed ........ NO
    Water Quality .......... NO
  Flow Routing Method ...... DYNWAVE
  Surcharge Method ......... EXTRAN
  Starting Date ............ 01/01/2002 00:00:00
  Ending Date .............. 01/01/2002 12:00:00
  Antecedent Dry Days ...... 5.0
  Report Time Step ......... 00:05:00
  Routing Time Step ........ 30.00 sec
  Variable Time Step ....... YES
  Maximum Trials ........... 8
  Number of Threads ........ 1
  Head Tolerance ........... 0.001000 ft
  
  
  **************************        Volume        Volume
  Flow Routing Continuity        acre-feet      10^6 gal
  **************************     ---------     ---------
  Dry Weather Inflow .......         5.495         1.791
  Wet Weather Inflow .......         0.000         0.000
  Groundwater Inflow .......         0.000         0.000
  RDII Inflow ..............         0.000         0.000
  External Inflow ..........         0.000         0.000
  External Outflow .........         4.491         1.464
  Flooding Loss ............         0.118         0.039
  Evaporation Loss .........         0.000         0.000
  Exfiltration Loss ........         0.000         0.000
  Initial Stored Volume ....         0.050         0.016
  Final Stored Volume ......         0.238         0.078
  Continuity Error (%) .....        12.572
  
  
  *************************
  Highest Continuity Errors
  *************************
  Node 142.00000 (44.72%)
  Node 146.00000 (41.02%)
  Node 970 (31.76%)
  Node 9014 (-7.48%)
  Node 15.00000 (4.72%)
  
  
  ***************************
  Time-Step Critical Elements
  ***************************
  Link 10448 (97.88%)
  
  
  ********************************
  Highest Flow Instability Indexes
  ********************************
  Link 9978 (35)
  Link 10456 (33)
  Link 5006 (33)
  Link 9930 (30)
  Link 5004 (29)
  
  
  *********************************
  Most Frequent Nonconverging Nodes
  *********************************
  Node 1146 (99.70%)
  Node 156.00000 (99.70%)
  Node 980 (95.34%)
  Node 954 (85.22%)
  Node 940 (73.35%)
  
  
  *************************
  Routing Time Step Summary
  *************************
  Minimum Time Step           :     0.33 sec
  Average Time Step           :     8.11 sec
  Maximum Time Step           :    15.24 sec
  % of Time in Steady State   :     0.00
  Average Iterations per Step :     7.99
  % of Steps Not Converging   :    99.70
  Time Step Frequencies       :
     30.000 -  3.817 sec      :    99.96 %
      3.817 -  0.486 sec      :     0.02 %
      0.486 -  0.062 sec      :     0.02 %
      0.062 -  0.008 sec      :     0.00 %
      0.008 -  0.001 sec      :     0.00 %
  
  
  ******************
  Node Depth Summary
  ******************
  
  ---------------------------------------------------------------------------------
                                 Average  Maximum  Maximum  Time of Max    Reported
                                   Depth    Depth      HGL   Occurrence   Max Depth
  Node                 Type         Feet     Feet     Feet  days hr:min        Feet
  ---------------------------------------------------------------------------------
  1.00000              JUNCTION     0.00     0.00  4008.11     0  00:00        0.00
  10.00000             JUNCTION     0.02     0.02  3986.28     0  00:27        0.02
  100.00000            JUNCTION     0.05     0.08  3969.20     0  00:26        0.08
  1008                 JUNCTION     6.17    31.39  4002.39     0  00:08       17.98
  101.00000            JUNCTION     0.69     0.69  3955.91     0  02:58        0.69
  102.00000            JUNCTION     0.30     0.30  3961.13     0  00:44        0.30
  1022                 JUNCTION     6.49     6.62  3964.32     0  08:58        6.62
  1024                 JUNCTION     0.15     0.15  3956.28     0  00:45        0.15
  1026                 JUNCTION     0.00     0.00  3956.48     0  00:00        0.00
  1028                 JUNCTION     0.13     0.14  3970.22     0  00:02        0.13
  1030                 JUNCTION     0.15     0.15  3967.45     0  00:08        0.15
  1032                 JUNCTION     0.14     0.15  3965.75     0  00:16        0.15
  1034                 JUNCTION     0.17     0.17  3963.77     0  00:15        0.17
  1036                 JUNCTION     0.17     0.17  3963.18     0  00:19        0.17
  104.00000            JUNCTION     0.05     0.08  3971.80     0  00:25        0.08
  1040                 JUNCTION     0.59     0.62  3962.44     0  09:20        0.62
  1042                 JUNCTION     0.25     0.56  3961.98     0  11:53        0.55
  1052                 JUNCTION     3.48    11.39  3987.39     0  00:03        3.50
  1054                 JUNCTION     0.18     0.18  3956.98     0  00:15        0.18
  1058                 JUNCTION     0.31     0.31  3956.21     0  06:22        0.31
  106.00000            JUNCTION     0.25     0.25  3958.85     0  03:57        0.25
  1062                 JUNCTION     0.06     0.06  3971.38     0  04:28        0.06
  1064                 JUNCTION     0.09     0.09  3969.29     0  01:07        0.09
  1066                 JUNCTION     0.10     0.10  3966.80     0  11:54        0.10
  1068                 JUNCTION     0.05     0.05  3970.09     0  05:59        0.05
  107.00000            JUNCTION     0.25     0.25  3956.36     0  03:27        0.25
  1070                 JUNCTION     0.09     0.09  3968.95     0  00:14        0.09
  1072                 JUNCTION     0.10     0.10  3966.74     0  09:39        0.10
  1074                 JUNCTION     0.15     0.15  3965.87     0  11:11        0.15
  1076                 JUNCTION     0.17     0.17  3964.78     0  09:57        0.17
  1078                 JUNCTION     0.23     0.24  3963.64     0  08:13        0.24
  108.00000            JUNCTION     0.05     0.08  3974.49     0  00:24        0.08
  1080                 JUNCTION     0.23     0.23  3962.37     0  07:42        0.23
  1084                 JUNCTION     0.21     0.21  3961.60     0  03:25        0.21
  1086                 JUNCTION     0.21     0.21  3960.95     0  03:20        0.21
  1088                 JUNCTION     0.15     0.15  3960.23     0  01:21        0.15
  1096                 JUNCTION     0.48     0.49  3956.23     0  00:44        0.49
  11.00000             JUNCTION     0.00     0.00  3995.98     0  00:00        0.00
  110.00000            JUNCTION     0.23     0.25  3969.96     0  00:04        0.25
  1100                 JUNCTION     0.11     0.11  3965.28     0  10:37        0.11
  1102                 JUNCTION     0.10     0.10  3967.76     0  07:21        0.10
  1106                 JUNCTION     0.05     0.05  3972.11     0  06:57        0.05
  1114                 JUNCTION     0.11     0.11  3966.16     0  06:19        0.11
  1116                 JUNCTION     0.03     0.03  3974.59     0  05:31        0.03
  1118                 JUNCTION     0.03     0.03  3973.55     0  08:06        0.03
  1122                 JUNCTION     0.25     0.26  3970.94     0  00:42        0.26
  1124                 JUNCTION     0.28     0.29  3965.67     0  00:43        0.29
  1130                 JUNCTION     0.38     0.38  3955.16     0  03:07        0.38
  1132                 JUNCTION     0.07     0.07  3967.77     0  00:03        0.07
  1134                 JUNCTION     0.06     0.06  3968.83     0  03:44        0.06
  1136                 JUNCTION     0.09     0.09  3963.46     0  05:54        0.09
  1138                 JUNCTION     0.11     0.11  3964.50     0  07:42        0.11
  1140                 JUNCTION     0.23     0.24  3974.41     0  04:25        0.24
  1142                 JUNCTION     0.51     0.51  3972.36     0  04:26        0.51
  1144                 JUNCTION     0.54     0.60  3971.92     0  00:10        0.60
  1148                 JUNCTION     0.39     0.40  3962.65     0  00:38        0.40
  1150                 JUNCTION     0.23     0.24  3962.00     0  00:38        0.23
  1152                 JUNCTION     0.93     0.94  3979.74     0  00:42        0.94
  1156                 JUNCTION     0.09     0.09  3968.05     0  00:40        0.09
  1158                 JUNCTION     0.09     0.09  3968.01     0  00:19        0.09
  1160                 JUNCTION     0.16     0.17  3956.64     0  00:13        0.17
  1162                 JUNCTION     0.03     0.03  3959.03     0  05:39        0.03
  1164                 JUNCTION     0.18     0.18  3957.38     0  00:13        0.18
  1170                 JUNCTION     0.35     0.36  3963.10     0  00:36        0.36
  1172                 JUNCTION     0.60     0.66  3971.62     0  00:10        0.65
  1174                 JUNCTION     0.58     0.63  3971.17     0  00:10        0.61
  1176                 JUNCTION     0.62     0.63  3970.86     0  09:15        0.63
  1178                 JUNCTION     0.67     0.68  3969.63     0  09:16        0.68
  118.00000            JUNCTION     0.21     0.21  3969.33     0  00:12        0.21
  1180                 JUNCTION     0.45     0.46  3966.09     0  09:20        0.46
  1182                 JUNCTION     0.68     0.69  3968.84     0  09:17        0.69
  1186                 JUNCTION     0.23     0.23  3973.04     0  04:26        0.23
  1190                 JUNCTION     0.02     0.02  3974.40     0  02:23        0.02
  1192                 JUNCTION     0.04     0.04  3971.68     0  02:26        0.04
  1194                 JUNCTION     0.04     0.04  3970.95     0  03:56        0.04
  1196                 JUNCTION     0.07     0.07  3970.45     0  11:06        0.07
  1198                 JUNCTION     0.02     0.02  3973.59     0  02:24        0.02
  12.00000             JUNCTION     0.02     0.02  4032.98     0  00:21        0.02
  1200                 JUNCTION     0.03     0.03  3971.00     0  07:45        0.03
  1204                 JUNCTION     0.06     0.06  3969.22     0  00:32        0.06
  129.00000            JUNCTION     0.16     0.16  3967.24     0  00:15        0.16
  13.00000             JUNCTION     0.02     0.02  3973.94     0  00:32        0.02
  134.00000            JUNCTION     0.02     0.02  3948.58     0  12:00        0.02
  139.00000            JUNCTION     0.13     0.14  3964.48     0  00:17        0.14
  14.00000             JUNCTION     0.00     0.00  4049.28     0  00:00        0.00
  142.00000            JUNCTION     0.27     0.34  3948.29     0  09:20        0.34
  145.00000            JUNCTION     0.33     0.34  3950.05     0  00:47        0.34
  146.00000            JUNCTION     0.36     0.44  3948.29     0  10:19        0.44
  149.00000            JUNCTION     0.49     0.50  3950.42     0  00:45        0.50
  15.00000             JUNCTION     0.08     0.09  4032.61     0  01:12        0.09
  152.00000            JUNCTION     0.47     0.55  3948.29     0  09:17        0.55
  154.00000            JUNCTION     0.37     0.41  3947.53     0  11:09        0.41
  157.00000            JUNCTION     0.36     0.36  3951.02     0  00:44        0.36
  159.00000            JUNCTION     0.17     0.17  3956.90     0  00:17        0.17
  16.00000             JUNCTION     0.03     0.03  4010.83     0  06:36        0.03
  160.00000            JUNCTION     0.10     0.10  3960.36     0  07:08        0.10
  161.00000            JUNCTION     0.15     0.15  3966.37     0  00:01        0.15
  163.00000            JUNCTION     0.28     0.28  3960.90     0  03:24        0.28
  164.00000            JUNCTION     0.08     0.08  3955.91     0  00:16        0.08
  165.00000            JUNCTION     0.19     0.19  3956.31     0  00:17        0.19
  166.00000            JUNCTION     0.03     0.03  3954.25     0  08:29        0.03
  17.00000             JUNCTION     0.03     0.04  3986.59     0  09:15        0.04
  172.00000            JUNCTION     0.37     0.37  3951.95     0  00:43        0.37
  174.00000            JUNCTION     0.36     0.36  3952.41     0  00:42        0.36
  176.00000            JUNCTION     0.24     0.25  3952.56     0  00:42        0.25
  178.00000            JUNCTION     0.11     0.11  3959.05     0  04:15        0.11
  18.00000             JUNCTION     0.03     0.03  3990.49     0  06:26        0.03
  182.00000            JUNCTION     0.22     0.22  3952.85     0  00:40        0.22
  183.00000            JUNCTION     0.07     0.08  3964.58     0  04:35        0.08
  184.00000            JUNCTION     0.22     0.22  3957.83     0  06:43        0.22
  185.00000            JUNCTION     0.22     0.22  3953.02     0  00:38        0.22
  186.00000            JUNCTION     0.16     0.20  3957.24     0  00:14        0.20
  188.00000            JUNCTION     0.17     0.17  3953.32     0  00:38        0.17
  189.00000            JUNCTION     0.11     0.11  3960.18     0  01:03        0.11
  19.00000             JUNCTION     0.05     0.05  3976.70     0  04:44        0.05
  190.00000            JUNCTION     0.18     0.18  3959.07     0  07:33        0.18
  191.00000            JUNCTION     0.14     0.14  3953.85     0  00:35        0.14
  194.00000            JUNCTION     0.15     0.15  3970.21     0  04:34        0.15
  195.00000            JUNCTION     0.16     0.16  3961.17     0  00:26        0.16
  196.00000            JUNCTION     0.14     0.15  3954.36     0  00:28        0.15
  198.00000            JUNCTION     0.04     0.04  3976.08     0  04:22        0.04
  199.00000            JUNCTION     0.08     0.08  3966.43     0  01:19        0.08
  2.00000              JUNCTION     0.00     0.00  4013.17     0  00:00        0.00
  20.00000             JUNCTION     0.00     0.00  4038.40     0  00:00        0.00
  202.00000            JUNCTION     0.07     0.08  3954.65     0  00:28        0.08
  203.00000            JUNCTION     0.12     0.12  3971.52     0  04:30        0.12
  205.00000            JUNCTION     0.07     0.09  3954.98     0  00:18        0.09
  207.00000            JUNCTION     0.13     0.13  3972.39     0  04:29        0.13
  208.00000            JUNCTION     0.04     0.04  3958.65     0  00:44        0.04
  209.00000            JUNCTION     0.11     0.11  3972.83     0  04:28        0.11
  21.00000             JUNCTION     0.04     0.04  3984.00     0  04:58        0.04
  210.00000            JUNCTION     0.06     0.06  3956.60     0  07:06        0.06
  211.00000            JUNCTION     0.13     0.13  3973.41     0  04:27        0.13
  212.00000            JUNCTION     0.09     0.09  3973.94     0  04:26        0.09
  213.00000            JUNCTION     0.18     0.18  3967.64     0  08:47        0.18
  216.00000            JUNCTION     0.06     0.06  3978.95     0  00:12        0.06
  217.00000            JUNCTION     0.21     0.21  3968.58     0  05:03        0.21
  218.00000            JUNCTION     0.21     0.22  3975.10     0  10:58        0.22
  219.00000            JUNCTION     0.20     0.20  3969.86     0  11:18        0.20
  22.00000             JUNCTION     0.00     0.00  4027.22     0  00:00        0.00
  220.00000            JUNCTION     0.24     0.25  3975.87     0  11:38        0.25
  221.00000            JUNCTION     0.20     0.20  3971.48     0  03:23        0.20
  222.00000            JUNCTION     0.02     0.02  3973.72     0  01:03        0.02
  224.00000            JUNCTION     0.06     0.06  3976.36     0  06:44        0.06
  225.00000            JUNCTION     0.80     0.81  3967.43     0  09:19        0.81
  226.00000            JUNCTION     0.05     0.05  3979.50     0  09:28        0.05
  227.00000            JUNCTION     0.36     0.36  3974.67     0  01:24        0.36
  228.00000            JUNCTION     0.02     0.02  3979.42     0  12:00        0.02
  229.00000            JUNCTION     0.21     0.21  3977.19     0  09:42        0.21
  23.00000             JUNCTION     0.03     0.03  4027.56     0  00:18        0.03
  230.00000            JUNCTION     0.12     0.12  3975.01     0  03:48        0.12
  231.00000            JUNCTION     0.14     0.14  3972.14     0  02:30        0.14
  232.00000            JUNCTION     0.05     0.05  3982.24     0  05:10        0.05
  233.00000            JUNCTION     0.16     0.16  3976.23     0  03:18        0.16
  234.00000            JUNCTION     0.08     0.08  3974.79     0  01:39        0.08
  235.00000            JUNCTION     0.15     0.15  3975.52     0  05:36        0.15
  236.00000            JUNCTION     0.17     0.17  3978.05     0  10:02        0.17
  237.00000            JUNCTION     0.16     0.16  3979.65     0  00:28        0.16
  238.00000            JUNCTION     0.05     0.05  3984.98     0  11:39        0.05
  239.00000            JUNCTION     0.17     0.17  3979.05     0  06:16        0.17
  24.00000             JUNCTION     0.03     0.03  4013.04     0  09:15        0.03
  240.00000            JUNCTION     0.05     0.05  3987.72     0  03:02        0.05
  241.00000            JUNCTION     0.19     0.19  3980.32     0  09:58        0.19
  242.00000            JUNCTION     0.05     0.05  3990.46     0  01:51        0.05
  243.00000            JUNCTION     0.13     0.14  3983.34     0  08:18        0.14
  245.00000            JUNCTION     0.12     0.13  3988.97     0  08:21        0.13
  246.00000            JUNCTION     0.15     0.16  3991.40     0  11:56        0.16
  248.00000            JUNCTION     0.13     0.13  3994.07     0  03:32        0.13
  249.00000            JUNCTION     0.12     0.12  3998.18     0  02:53        0.12
  25.00000             JUNCTION     0.05     0.05  3969.55     0  04:37        0.05
  251.00000            JUNCTION     0.11     0.11  4002.15     0  03:48        0.11
  252.00000            JUNCTION     0.08     0.08  4011.08     0  08:36        0.08
  253.00000            JUNCTION     0.21     0.21  4013.45     0  10:25        0.21
  254.00000            JUNCTION     0.06     0.07  4015.42     0  03:30        0.07
  255.00000            JUNCTION     0.06     0.06  4019.80     0  00:34        0.06
  256.00000            JUNCTION     0.63     0.64  4024.86     0  06:18        0.64
  257.00000            JUNCTION     0.05     0.05  4025.83     0  07:49        0.05
  258.00000            JUNCTION     0.04     0.04  4034.11     0  07:13        0.04
  259.00000            JUNCTION     0.00     0.00  4035.64     0  00:00        0.00
  26.00000             JUNCTION     0.04     0.05  3994.42     0  00:07        0.05
  260.00000            JUNCTION     0.00     0.00  4043.24     0  00:00        0.00
  261.00000            JUNCTION     0.00     0.00  4052.35     0  00:00        0.00
  262.00000            JUNCTION     0.00     0.00  4066.49     0  00:00        0.00
  263.00000            JUNCTION     0.00     0.00  4086.23     0  00:00        0.00
  264.00000            JUNCTION     0.00     0.00  4095.00     0  00:00        0.00
  265.00000            JUNCTION     0.00     0.00  4100.06     0  00:00        0.00
  266.00000            JUNCTION     0.00     0.00  4119.19     0  00:00        0.00
  267.00000            JUNCTION     0.02     0.02  4145.58     0  02:25        0.02
  268.00000            JUNCTION     0.04     0.04  4148.22     0  08:24        0.04
  269.00000            JUNCTION     0.08     0.08  4148.70     0  08:16        0.08
  27.00000             JUNCTION     0.08     0.08  3980.71     0  10:38        0.08
  270.00000            JUNCTION     0.11     0.11  4165.61     0  06:04        0.11
  271.00000            JUNCTION     0.07     0.07  4165.84     0  04:12        0.07
  272.00000            JUNCTION     0.07     0.07  4166.14     0  06:50        0.07
  273.00000            JUNCTION     0.03     0.03  4187.18     0  09:39        0.03
  274.00000            JUNCTION     0.05     0.05  4194.08     0  09:31        0.05
  275.00000            JUNCTION     0.09     0.09  4194.89     0  03:23        0.09
  276.00000            JUNCTION     0.04     0.04  4202.01     0  00:01        0.04
  28.00000             JUNCTION     0.00     0.00  4013.54     0  00:00        0.00
  29.00000             JUNCTION     0.04     0.04  4012.31     0  11:34        0.04
  3.00000              JUNCTION     0.00     0.00  4069.66     0  00:00        0.00
  30.00000             JUNCTION     0.10     0.10  3968.71     0  09:11        0.10
  31.00000             JUNCTION     0.09     0.09  3974.65     0  09:19        0.09
  32.00000             JUNCTION     0.05     0.05  3994.13     0  08:50        0.05
  33.00000             JUNCTION     0.04     0.04  4004.26     0  08:14        0.04
  34.00000             JUNCTION     0.07     0.08  3967.66     0  05:55        0.08
  35.00000             JUNCTION     0.08     0.08  3993.52     0  10:12        0.08
  36.00000             JUNCTION     0.04     0.04  4006.52     0  00:01        0.04
  37.00000             JUNCTION     0.11     0.11  3973.29     0  10:55        0.11
  38.00000             JUNCTION     0.10     0.10  3981.03     0  09:07        0.10
  39.00000             JUNCTION     0.04     0.04  3986.44     0  01:05        0.04
  4.00000              JUNCTION     0.01     0.01  3999.67     0  00:17        0.01
  40.00000             JUNCTION     0.05     0.05  3992.69     0  06:57        0.05
  404.00000            JUNCTION     0.10     0.10  3975.07     0  03:15        0.10
  41.00000             JUNCTION     0.06     0.06  3984.77     0  08:45        0.06
  42.00000             JUNCTION     0.10     0.10  3987.10     0  10:32        0.10
  43.00000             JUNCTION     0.03     0.03  4001.60     0  00:01        0.03
  44.00000             JUNCTION     0.10     0.10  3972.67     0  11:33        0.10
  45.00000             JUNCTION     0.08     0.08  3986.67     0  09:14        0.08
  46.00000             JUNCTION     0.06     0.06  3986.75     0  09:15        0.06
  47.00000             JUNCTION     0.05     0.05  3984.92     0  00:43        0.05
  48.00000             JUNCTION     0.02     0.02  3977.12     0  09:13        0.02
  49.00000             JUNCTION     0.08     0.08  3980.48     0  09:19        0.08
  5.00000              JUNCTION     0.02     0.02  4033.62     0  00:12        0.02
  50.00000             JUNCTION     0.05     0.05  3981.43     0  11:57        0.05
  51.00000             JUNCTION     0.09     0.09  3977.80     0  03:23        0.09
  52.00000             JUNCTION     0.04     0.04  3980.27     0  10:14        0.04
  54.00000             JUNCTION     0.07     0.07  3981.44     0  00:03        0.07
  55.00000             JUNCTION     0.04     0.04  3972.74     0  04:24        0.04
  56.00000             JUNCTION     0.10     0.10  3977.60     0  10:06        0.10
  58.00000             JUNCTION     0.08     0.08  3978.43     0  09:09        0.08
  59.00000             JUNCTION     0.03     0.03  3969.69     0  08:10        0.03
  6.00000              JUNCTION     0.00     0.00  4070.75     0  00:00        0.00
  60.00000             JUNCTION     0.04     0.04  3975.93     0  04:04        0.04
  61.00000             JUNCTION     0.06     0.06  3976.65     0  05:56        0.06
  62.00000             JUNCTION     0.08     0.09  3973.79     0  05:31        0.09
  63.00000             JUNCTION     0.09     0.09  3974.37     0  07:31        0.09
  64.00000             JUNCTION     0.09     0.09  3972.56     0  08:07        0.09
  65.00000             JUNCTION     0.06     0.06  3974.43     0  00:07        0.06
  66.00000             JUNCTION     0.06     0.06  3972.85     0  07:12        0.06
  67.00000             JUNCTION     0.13     0.13  3967.42     0  08:24        0.13
  69.00000             JUNCTION     0.13     0.13  3966.03     0  08:40        0.13
  7.00000              JUNCTION     0.00     0.00  4057.98     0  00:00        0.00
  72.00000             JUNCTION     0.00     0.00  3968.49     0  00:00        0.00
  73.00000             JUNCTION     0.00     0.00  3968.45     0  00:00        0.00
  74.00000             JUNCTION     0.13     0.13  3966.56     0  08:48        0.13
  75.00000             JUNCTION     0.00     0.00  3968.40     0  00:00        0.00
  76.00000             JUNCTION     0.12     0.12  3968.26     0  00:11        0.12
  77.00000             JUNCTION     0.16     0.16  3966.76     0  03:24        0.16
  8.00000              JUNCTION     0.11     0.11  3994.07     0  02:32        0.11
  80.00000             JUNCTION     0.24     0.24  3964.89     0  00:01        0.24
  81.00000             JUNCTION     0.08     0.08  3965.15     0  08:04        0.08
  83.00000             JUNCTION     0.43     0.43  3962.56     0  08:31        0.43
  84.00000             JUNCTION     0.19     0.19  3964.10     0  07:22        0.19
  85.00000             JUNCTION     0.15     0.15  3963.65     0  05:48        0.15
  86.00000             JUNCTION     0.29     0.30  3962.33     0  00:43        0.30
  87.00000             JUNCTION     0.11     0.11  3962.05     0  03:35        0.11
  89.00000             JUNCTION     0.37     0.38  3963.90     0  00:36        0.38
  9.00000              JUNCTION     0.08     0.08  3996.66     0  04:14        0.08
  91.00000             JUNCTION     0.20     0.20  3959.83     0  02:29        0.20
  912                  JUNCTION     0.06     0.06  3965.96     0  00:07        0.06
  914                  JUNCTION     0.37     0.37  3959.36     0  07:06        0.37
  916                  JUNCTION     0.18     0.18  3961.78     0  00:16        0.18
  918                  JUNCTION     0.59     0.66  3949.93     0  08:48        0.66
  920                  JUNCTION     0.29     0.29  3960.29     0  08:52        0.29
  930                  JUNCTION     0.11     0.11  3962.90     0  03:36        0.11
  934                  JUNCTION     0.22     0.22  3965.52     0  04:38        0.22
  940                  JUNCTION    11.20    64.47  4022.79     0  00:01       19.46
  952                  JUNCTION     0.23     0.23  3978.16     0  00:42        0.23
  954                  JUNCTION    14.39   110.57  4078.57     0  00:03       38.17
  958                  JUNCTION     8.17    34.46  3998.38     0  00:03       17.71
  96.00000             JUNCTION     0.39     0.41  3964.50     0  00:05        0.41
  962                  JUNCTION     1.55     1.61  3971.91     0  00:10        1.61
  964                  JUNCTION     0.58     0.59  3969.85     0  09:16        0.59
  97.00000             JUNCTION     0.06     0.09  3966.89     0  00:27        0.09
  970                  JUNCTION    14.50    19.95  3974.92     0  08:43       19.95
  974                  JUNCTION    20.18    54.88  4022.88     0  00:16       21.26
  976                  JUNCTION     0.67     0.68  3967.97     0  09:18        0.68
  98.00000             JUNCTION     0.12     0.14  3965.90     0  00:32        0.14
  980                  JUNCTION    15.55    38.51  3993.80     0  00:03       21.35
  990                  JUNCTION     0.04     0.04  3990.40     0  01:41        0.04
  992                  JUNCTION     0.04     0.04  3986.78     0  03:32        0.04
  994                  JUNCTION     0.05     0.05  3983.16     0  06:04        0.05
  996                  JUNCTION     0.30     0.30  3979.79     0  11:16        0.30
  998                  JUNCTION     0.04     0.04  3971.04     0  00:59        0.04
  1146                 OUTFALL      0.40     0.41  3955.90     0  00:44        0.41
  156.00000            OUTFALL      0.37     0.40  3945.65     0  10:16        0.40
  9010                 STORAGE      0.01     2.95  3949.28     0  00:00        0.05
  9012                 STORAGE      0.01     3.81  3959.56     0  00:00        0.93
  9014                 STORAGE      0.03     4.56  3963.42     0  00:00        2.30
  9016                 STORAGE      2.95     6.30  3962.12     0  11:43        6.29
  9018                 STORAGE      0.04     4.78  3954.69     0  00:00        2.91
  9020                 STORAGE      0.02     1.67  3969.40     0  00:00        1.31
  9026                 STORAGE      0.00     1.00  3958.00     0  00:00        0.00
  
  
  *******************
  Node Inflow Summary
  *******************
  
  -------------------------------------------------------------------------------------------------
                                  Maximum  Maximum                  Lateral       Total        Flow
                                  Lateral    Total  Time of Max      Inflow      Inflow     Balance
                                   Inflow   Inflow   Occurrence      Volume      Volume       Error
  Node                 Type           GPM      GPM  days hr:min    10^6 gal    10^6 gal     Percent
  -------------------------------------------------------------------------------------------------
  1.00000              JUNCTION      0.00     0.00     0  00:00           0           0       0.000 gal
  10.00000             JUNCTION      1.28     1.28     0  00:00    0.000922    0.000922       0.241
  100.00000            JUNCTION      0.00    15.65     0  00:25           0      0.0039       0.563
  1008                 JUNCTION      0.00    15.96     0  00:00           0      0.0041       3.616
  101.00000            JUNCTION    180.20   488.54     0  02:37        0.13        0.35       0.470
  102.00000            JUNCTION      0.00   271.97     0  00:43           0       0.188       0.108
  1022                 JUNCTION      0.00  2725.61     0  00:01           0        0.88       2.254
  1024                 JUNCTION      0.00   120.13     0  00:15           0      0.0797       0.170
  1026                 JUNCTION      0.00     0.00     0  00:00           0           0       0.000 gal
  1028                 JUNCTION     44.64    44.64     0  00:00      0.0321      0.0321       0.154
  1030                 JUNCTION      0.00    47.23     0  00:04           0      0.0321       0.417
  1032                 JUNCTION      0.00    45.25     0  00:10           0       0.032       0.426
  1034                 JUNCTION      0.00    44.76     0  00:16           0      0.0318       0.424
  1036                 JUNCTION      0.00    45.27     0  00:16           0      0.0317       0.271
  104.00000            JUNCTION      0.00    15.92     0  00:24           0     0.00393       0.636
  1040                 JUNCTION      1.04   841.76     0  09:20    0.000749       0.593       0.029
  1042                 JUNCTION      0.00  1078.86     0  11:45           0       0.664       0.124
  1052                 JUNCTION      0.00    86.13     0  00:00           0      0.0208       1.214
  1054                 JUNCTION      0.00   102.03     0  01:22           0      0.0729       0.350
  1058                 JUNCTION      2.78   149.88     0  08:20       0.002       0.107       0.313
  106.00000            JUNCTION     16.04   191.08     0  02:01      0.0115       0.137       0.559
  1062                 JUNCTION      6.32     8.26     0  05:32     0.00455     0.00594       0.095
  1064                 JUNCTION     11.77    20.03     0  00:29     0.00847      0.0144       0.124
  1066                 JUNCTION     11.77    31.80     0  00:32     0.00847      0.0229       0.079
  1068                 JUNCTION      6.32     6.32     0  00:00     0.00455     0.00455       0.113
  107.00000            JUNCTION      0.00    91.35     0  07:21           0      0.0649       0.137
  1070                 JUNCTION     11.77    18.09     0  00:14     0.00847       0.013       0.077
  1072                 JUNCTION     11.77    29.86     0  01:07     0.00847      0.0215       0.081
  1074                 JUNCTION      0.00    61.66     0  00:29           0      0.0443       0.067
  1076                 JUNCTION      0.00    61.66     0  04:07           0      0.0443       0.103
  1078                 JUNCTION      0.00    85.19     0  06:16           0      0.0611       0.229
  108.00000            JUNCTION      0.00    16.91     0  00:09           0     0.00395       0.647
  1080                 JUNCTION      0.00    85.19     0  02:31           0       0.061       0.114
  1084                 JUNCTION     15.62   100.81     0  04:56      0.0112      0.0722       0.077
  1086                 JUNCTION      1.22   102.03     0  02:02    0.000878       0.073       0.078
  1088                 JUNCTION      0.00   102.03     0  01:29           0      0.0729       0.064
  1096                 JUNCTION      0.00   337.49     0  00:44           0       0.234       0.070
  11.00000             JUNCTION      0.00     0.00     0  00:00           0           0       0.000 gal
  110.00000            JUNCTION     49.44    49.44     0  00:00      0.0356      0.0356       0.218
  1100                 JUNCTION      0.00    18.16     0  09:19           0      0.0129       0.133
  1102                 JUNCTION      5.28    14.36     0  01:45      0.0038      0.0103       0.600
  1106                 JUNCTION      3.80     3.80     0  00:00     0.00274     0.00274       0.381
  1114                 JUNCTION      3.80    18.16     0  02:04     0.00274       0.013       0.289
  1116                 JUNCTION      1.94     1.94     0  00:00      0.0014      0.0014       0.198
  1118                 JUNCTION      0.00     1.94     0  00:20           0     0.00139       0.240
  1122                 JUNCTION      4.46   264.01     0  00:42     0.00321       0.182       0.184
  1124                 JUNCTION      4.46   267.87     0  00:42     0.00321       0.185       0.307
  1130                 JUNCTION      0.00   488.54     0  10:34           0       0.348       0.087
  1132                 JUNCTION     23.53    23.53     0  00:00      0.0169      0.0169       0.097
  1134                 JUNCTION      0.00     5.28     0  00:44           0     0.00379       0.542
  1136                 JUNCTION      0.00    28.72     0  10:16           0      0.0204       0.154
  1138                 JUNCTION      0.00    18.16     0  01:32           0      0.0129       0.366
  1140                 JUNCTION      0.00   124.93     0  02:05           0      0.0878       0.398
  1142                 JUNCTION    212.00   538.74     0  04:26       0.153       0.385       0.255
  1144                 JUNCTION      0.00   538.74     0  04:26           0       0.384      -0.034
  1148                 JUNCTION      0.00   228.79     0  00:36           0       0.159       0.156
  1150                 JUNCTION      0.00   242.32     0  00:38           0       0.169       0.070
  1152                 JUNCTION      0.00   634.35     0  00:03           0        0.17       1.802
  1156                 JUNCTION      0.00    20.03     0  03:23           0      0.0144       0.072
  1158                 JUNCTION      0.00    18.09     0  00:19           0       0.013       0.076
  1160                 JUNCTION      0.00    36.60     0  00:15           0       0.026       0.268
  1162                 JUNCTION      1.00     1.00     0  00:00     0.00072     0.00072       0.563
  1164                 JUNCTION     54.75    55.75     0  01:04      0.0394      0.0401       0.249
  1170                 JUNCTION      0.00   194.34     0  00:36           0       0.134       0.152
  1172                 JUNCTION      0.00   658.30     0  00:10           0       0.405       0.111
  1174                 JUNCTION      0.00   649.45     0  00:10           0       0.405       0.075
  1176                 JUNCTION      0.00   633.11     0  00:10           0       0.404       0.285
  1178                 JUNCTION     12.44   670.92     0  09:16     0.00896       0.475       0.213
  118.00000            JUNCTION      0.00    51.58     0  00:06           0      0.0355       0.468
  1180                 JUNCTION      0.00   796.08     0  09:19           0       0.561       0.111
  1182                 JUNCTION      0.00   670.92     0  09:17           0       0.474       0.232
  1186                 JUNCTION      0.00   110.10     0  04:25           0      0.0772       0.139
  1190                 JUNCTION      0.91     0.91     0  00:00    0.000655    0.000655       0.387
  1192                 JUNCTION      2.50     3.41     0  00:44      0.0018     0.00245       0.183
  1194                 JUNCTION      0.00     3.41     0  01:51           0     0.00245       0.186
  1196                 JUNCTION      5.33    10.56     0  08:44     0.00384     0.00759       0.124
  1198                 JUNCTION      0.91     0.91     0  00:00    0.000655    0.000655       0.365
  12.00000             JUNCTION      0.00     0.31     0  00:17           0      0.0002       1.271
  1200                 JUNCTION      0.91     1.82     0  01:23    0.000655     0.00131       0.239
  1204                 JUNCTION      5.28     5.28     0  00:00      0.0038      0.0038       0.183
  129.00000            JUNCTION      8.04    57.74     0  00:12     0.00579      0.0411       0.247
  13.00000             JUNCTION      1.72     1.72     0  00:00     0.00124     0.00124       0.261
  134.00000            JUNCTION      0.56     0.56     0  00:00    0.000403    0.000403       1.469
  139.00000            JUNCTION     10.28    67.91     0  00:15      0.0074      0.0484       0.183
  14.00000             JUNCTION      0.00     0.00     0  00:00           0           0       0.000 gal
  142.00000            JUNCTION      0.72     6.11     0  00:30    0.000518    0.000977      80.885
  145.00000            JUNCTION      0.00   468.01     0  00:46           0       0.332       0.205
  146.00000            JUNCTION      0.00    11.36     0  00:22           0    0.000793      69.563
  149.00000            JUNCTION      0.00   276.95     0  00:44           0       0.197       0.223
  15.00000             JUNCTION      0.00     0.30     0  00:21           0    0.000198       4.952
  152.00000            JUNCTION      0.00  1421.61     0  09:10           0       0.861       0.591
  154.00000            JUNCTION      0.00  1889.33     0  09:17           0        1.19       0.025
  157.00000            JUNCTION      0.00   276.95     0  00:43           0       0.197       0.139
  159.00000            JUNCTION      0.00    67.88     0  00:17           0      0.0484       0.067
  16.00000             JUNCTION      4.08     4.08     0  00:00     0.00294     0.00294       0.256
  160.00000            JUNCTION      0.00   102.40     0  03:03           0      0.0736       0.063
  161.00000            JUNCTION    102.40   102.40     0  00:00      0.0737      0.0737       0.063
  163.00000            JUNCTION      0.00   102.52     0  00:01           0      0.0737       0.164
  164.00000            JUNCTION     23.32    23.32     0  00:00      0.0168      0.0168       0.089
  165.00000            JUNCTION      0.00   170.28     0  00:17           0       0.122       0.055
  166.00000            JUNCTION      0.56     0.56     0  00:00    0.000403    0.000403       2.137
  17.00000             JUNCTION      1.72     6.00     0  01:14     0.00124     0.00429       0.114
  172.00000            JUNCTION      0.56   276.96     0  00:42    0.000403       0.197       0.163
  174.00000            JUNCTION      0.00   253.08     0  00:42           0        0.18       0.134
  176.00000            JUNCTION     16.04    82.94     0  00:40      0.0115      0.0587       0.246
  178.00000            JUNCTION      3.00    20.68     0  01:04     0.00216      0.0148       0.211
  18.00000             JUNCTION      0.44     4.52     0  01:47    0.000317     0.00325       0.239
  182.00000            JUNCTION      0.00    66.91     0  00:39           0      0.0472       0.236
  183.00000            JUNCTION      0.00    31.30     0  04:34           0      0.0217       0.089
  184.00000            JUNCTION      0.00    83.24     0  01:41           0      0.0597       0.163
  185.00000            JUNCTION     27.28    66.92     0  00:38      0.0196      0.0474       0.229
  186.00000            JUNCTION      5.00   111.24     0  05:44      0.0036      0.0797       0.034
  188.00000            JUNCTION     11.24    39.74     0  00:35     0.00809      0.0278       0.486
  189.00000            JUNCTION     17.68    17.68     0  00:00      0.0127      0.0127       0.497
  19.00000             JUNCTION      3.44     4.72     0  00:27     0.00248      0.0034       0.437
  190.00000            JUNCTION      0.00    62.56     0  00:42           0       0.045       0.156
  191.00000            JUNCTION      0.00    28.73     0  00:31           0      0.0199       0.670
  194.00000            JUNCTION      5.48    31.30     0  04:30     0.00395      0.0219       0.688
  195.00000            JUNCTION     62.56    62.56     0  00:00       0.045       0.045       0.165
  196.00000            JUNCTION     20.64    28.58     0  00:28      0.0149        0.02       0.454
  198.00000            JUNCTION      7.28     7.28     0  00:00     0.00524     0.00524       0.354
  199.00000            JUNCTION     23.00    23.00     0  00:00      0.0166      0.0166       0.363
  2.00000              JUNCTION      0.00     0.00     0  00:00           0           0       0.000 gal
  20.00000             JUNCTION      0.00     0.00     0  00:00           0           0       0.000 gal
  202.00000            JUNCTION      0.00     8.31     0  00:23           0     0.00516       0.731
  203.00000            JUNCTION      0.00    25.82     0  04:29           0       0.018       0.289
  205.00000            JUNCTION      0.00     7.28     0  01:01           0      0.0052       0.738
  207.00000            JUNCTION      5.72    25.82     0  04:28     0.00412       0.018       0.424
  208.00000            JUNCTION      0.00     7.28     0  04:22           0     0.00522       0.086
  209.00000            JUNCTION      0.00    20.10     0  04:27           0       0.014       0.164
  21.00000             JUNCTION      0.00     4.52     0  06:27           0     0.00324       0.220
  210.00000            JUNCTION      0.00     7.28     0  00:44           0     0.00522       0.434
  211.00000            JUNCTION      5.28    20.10     0  04:26      0.0038       0.014       0.577
  212.00000            JUNCTION      0.00    14.82     0  04:25           0      0.0102       0.159
  213.00000            JUNCTION      1.04    99.92     0  09:38    0.000749      0.0715       0.069
  216.00000            JUNCTION     12.44    12.44     0  00:00     0.00896     0.00896       0.307
  217.00000            JUNCTION     17.12    98.88     0  06:42      0.0123      0.0708       0.120
  218.00000            JUNCTION      0.00    96.20     0  05:53           0      0.0673       0.095
  219.00000            JUNCTION     17.12    81.76     0  01:22      0.0123      0.0586       0.237
  22.00000             JUNCTION      0.00     0.00     0  00:00           0           0       0.000 gal
  220.00000            JUNCTION      0.00    96.20     0  06:25           0      0.0675       0.321
  221.00000            JUNCTION     62.56    64.64     0  01:19       0.045      0.0465       0.518
  222.00000            JUNCTION      1.04     1.04     0  00:00    0.000749    0.000749       0.308
  224.00000            JUNCTION      0.00     5.20     0  03:01           0     0.00362       0.223
  225.00000            JUNCTION      1.04   796.08     0  09:18    0.000749       0.563       0.307
  226.00000            JUNCTION      0.00     5.20     0  03:15           0     0.00365       0.733
  227.00000            JUNCTION     74.32   101.00     0  00:31      0.0535      0.0727       0.176
  228.00000            JUNCTION      1.04     1.04     0  00:00    0.000749    0.000749       0.630
  229.00000            JUNCTION      8.88    78.56     0  08:05     0.00639      0.0551       0.348
  23.00000             JUNCTION      5.44     5.44     0  00:00     0.00392     0.00392       0.140
  230.00000            JUNCTION      1.04    26.68     0  00:40    0.000749      0.0192       0.081
  231.00000            JUNCTION     19.28    88.44     0  01:26      0.0139      0.0636       0.069
  232.00000            JUNCTION      0.00     5.20     0  02:09           0     0.00367       0.632
  233.00000            JUNCTION     22.08    22.08     0  00:00      0.0159      0.0159       0.458
  234.00000            JUNCTION      1.04    23.12     0  01:20    0.000749      0.0166       0.128
  235.00000            JUNCTION     25.64    25.64     0  00:00      0.0185      0.0185       0.256
  236.00000            JUNCTION     16.28    69.16     0  00:28      0.0117      0.0497       0.093
  237.00000            JUNCTION     52.88    52.88     0  00:00      0.0381      0.0381       0.198
  238.00000            JUNCTION      0.00     5.20     0  01:31           0      0.0037       0.625
  239.00000            JUNCTION      6.32    69.68     0  04:16     0.00455      0.0489       0.253
  24.00000             JUNCTION      0.00     0.69     0  00:45           0    0.000188       4.849
  240.00000            JUNCTION      0.00     5.20     0  01:25           0     0.00372       0.623
  241.00000            JUNCTION      0.00    63.36     0  03:58           0      0.0445       0.317
  242.00000            JUNCTION      5.20     5.20     0  00:00     0.00374     0.00374       0.638
  243.00000            JUNCTION      8.04    63.36     0  03:49     0.00579      0.0445       0.154
  245.00000            JUNCTION      5.72    55.32     0  09:14     0.00412      0.0388       0.280
  246.00000            JUNCTION      5.08    49.60     0  05:43     0.00366      0.0348       0.288
  248.00000            JUNCTION      4.24    44.52     0  05:42     0.00305      0.0312       0.177
  249.00000            JUNCTION      6.96    40.28     0  02:47     0.00501      0.0282       0.257
  25.00000             JUNCTION      1.72     3.44     0  00:32     0.00124     0.00247       0.623
  251.00000            JUNCTION      5.48    33.32     0  07:23     0.00395      0.0233       0.243
  252.00000            JUNCTION      0.00    27.84     0  06:05           0      0.0194       0.187
  253.00000            JUNCTION      0.00    27.84     0  02:13           0      0.0195       0.708
  254.00000            JUNCTION      0.00    14.32     0  10:37           0     0.00981       0.072
  255.00000            JUNCTION     13.52    13.52     0  00:00     0.00973     0.00973       0.172
  256.00000            JUNCTION      0.00    14.32     0  05:17           0      0.0101       3.364
  257.00000            JUNCTION      0.00     6.68     0  01:17           0     0.00479       0.158
  258.00000            JUNCTION      6.68     6.68     0  00:00     0.00481     0.00481       0.363
  259.00000            JUNCTION      0.00     0.00     0  00:00           0           0       0.000 gal
  26.00000             JUNCTION      1.16     1.16     0  00:00    0.000835    0.000835       0.419
  260.00000            JUNCTION      0.00     0.00     0  00:00           0           0       0.000 gal
  261.00000            JUNCTION      0.00     0.00     0  00:00           0           0       0.000 gal
  262.00000            JUNCTION      0.00     0.00     0  00:00           0           0       0.000 gal
  263.00000            JUNCTION      0.00     0.00     0  00:00           0           0       0.000 gal
  264.00000            JUNCTION      0.00     0.00     0  00:00           0           0       0.000 gal
  265.00000            JUNCTION      0.00     0.00     0  00:00           0           0       0.000 gal
  266.00000            JUNCTION      0.00     0.00     0  00:00           0           0       0.000 gal
  267.00000            JUNCTION      0.00     7.64     0  09:02           0     0.00536       0.125
  268.00000            JUNCTION      0.00     7.64     0  07:09           0     0.00537       0.180
  269.00000            JUNCTION      0.00     7.64     0  01:48           0     0.00539       0.344
  27.00000             JUNCTION      3.64    15.72     0  02:57     0.00262      0.0113       1.219
  270.00000            JUNCTION      0.00     7.64     0  01:53           0      0.0054       0.244
  271.00000            JUNCTION      0.00     7.64     0  10:10           0     0.00541       0.170
  272.00000            JUNCTION      0.00     7.64     0  01:56           0     0.00543       0.280
  273.00000            JUNCTION      0.00     7.64     0  02:03           0     0.00543       0.064
  274.00000            JUNCTION      0.00     7.64     0  02:16           0     0.00545       0.315
  275.00000            JUNCTION      0.00     8.00     0  00:02           0      0.0055       0.869
  276.00000            JUNCTION      7.64     7.64     0  00:00      0.0055      0.0055       0.076
  28.00000             JUNCTION      0.00     0.00     0  00:00           0           0       0.000 gal
  29.00000             JUNCTION      9.00     9.28     0  08:04     0.00648     0.00666       0.112
  3.00000              JUNCTION      0.00     0.00     0  00:00           0           0       0.000 gal
  30.00000             JUNCTION      0.00     3.44     0  01:49           0     0.00246       0.976
  31.00000             JUNCTION      3.00    13.72     0  06:41     0.00216     0.00977       0.178
  32.00000             JUNCTION      0.00     1.33     0  00:14           0    0.000832       2.115
  33.00000             JUNCTION      0.00     9.28     0  07:11           0     0.00665       0.159
  34.00000             JUNCTION      4.08     7.52     0  03:15     0.00294     0.00537       0.951
  35.00000             JUNCTION     10.68    11.84     0  08:50     0.00769      0.0085       0.213
  36.00000             JUNCTION      9.00     9.00     0  00:00     0.00648     0.00648       0.079
  37.00000             JUNCTION      1.44    15.16     0  01:48     0.00104      0.0108       0.497
  38.00000             JUNCTION      2.52     7.96     0  00:17     0.00181     0.00573       1.263
  39.00000             JUNCTION      5.32     5.32     0  00:00     0.00383     0.00383       0.305
  4.00000              JUNCTION      0.84     0.84     0  00:00    0.000605    0.000605       0.219
  40.00000             JUNCTION      0.00    11.84     0  04:35           0     0.00849       0.207
  404.00000            JUNCTION      0.00    10.72     0  01:00           0     0.00767       0.805
  41.00000             JUNCTION      2.52    16.56     0  05:46     0.00181      0.0119       0.158
  42.00000             JUNCTION      2.52    11.55     0  00:01     0.00181     0.00829       0.410
  43.00000             JUNCTION      5.92     5.92     0  00:00     0.00426     0.00426       0.068
  44.00000             JUNCTION      3.04    33.92     0  09:38     0.00219       0.024       0.234
  45.00000             JUNCTION      2.52    14.04     0  09:13     0.00181      0.0101       0.211
  46.00000             JUNCTION      7.00    16.28     0  07:32     0.00504      0.0117       0.312
  47.00000             JUNCTION      6.88     6.88     0  00:00     0.00495     0.00495       0.324
  48.00000             JUNCTION      1.44     1.44     0  00:00     0.00104     0.00104       0.242
  49.00000             JUNCTION      2.52    17.36     0  11:10     0.00181      0.0124       0.180
  5.00000              JUNCTION      0.28     0.28     0  00:00    0.000202    0.000202       0.716
  50.00000             JUNCTION      1.40     6.72     0  01:11     0.00101     0.00483       0.127
  51.00000             JUNCTION      4.48    10.51     0  00:01     0.00323     0.00748       0.727
  52.00000             JUNCTION      0.12     6.84     0  10:14    8.64e-05     0.00491       0.208
  54.00000             JUNCTION     15.08    15.08     0  00:00      0.0109      0.0109       0.150
  55.00000             JUNCTION      2.20     3.64     0  00:28     0.00158     0.00262       0.551
  56.00000             JUNCTION      0.00    28.12     0  07:24           0      0.0201       0.277
  58.00000             JUNCTION      2.52    19.88     0  06:38     0.00181      0.0142       0.092
  59.00000             JUNCTION      0.00     3.64     0  02:03           0      0.0026       0.114
  6.00000              JUNCTION      0.00     0.00     0  00:00           0           0       0.000 gal
  60.00000             JUNCTION      0.00     6.84     0  11:58           0      0.0049       0.149
  61.00000             JUNCTION      2.52    12.92     0  01:33     0.00181     0.00924       0.073
  62.00000             JUNCTION      2.52    22.40     0  03:13     0.00181       0.016       0.180
  63.00000             JUNCTION      0.00    28.12     0  08:32           0      0.0201       0.198
  64.00000             JUNCTION      2.52    24.92     0  04:34     0.00181      0.0178       0.306
  65.00000             JUNCTION      2.52    17.83     0  00:03     0.00181      0.0127       0.201
  66.00000             JUNCTION      2.52    15.44     0  01:33     0.00181      0.0111       0.271
  67.00000             JUNCTION      5.76    40.72     0  11:57     0.00415      0.0291       0.436
  69.00000             JUNCTION      2.52    20.14     0  00:07     0.00181      0.0144       0.363
  7.00000              JUNCTION      0.00     0.00     0  00:00           0           0       0.000 gal
  72.00000             JUNCTION      0.00     0.00     0  00:00           0           0       0.000 gal
  73.00000             JUNCTION      0.00     0.00     0  00:00           0           0       0.000 gal
  74.00000             JUNCTION      2.52    42.88     0  11:06     0.00181      0.0306       0.126
  75.00000             JUNCTION      0.00     0.00     0  00:00           0           0       0.000 gal
  76.00000             JUNCTION     34.44    34.44     0  00:00      0.0248      0.0248       0.088
  77.00000             JUNCTION     68.44    68.44     0  00:00      0.0493      0.0493       0.259
  8.00000              JUNCTION      3.44     4.28     0  00:17     0.00248     0.00308       0.767
  80.00000             JUNCTION    133.30   133.30     0  00:00       0.096       0.096       0.066
  81.00000             JUNCTION      2.52    22.64     0  05:48     0.00181      0.0162       0.169
  83.00000             JUNCTION      2.52   158.46     0  00:46     0.00181       0.114       0.268
  84.00000             JUNCTION      5.84    48.72     0  02:35      0.0042      0.0347       0.248
  85.00000             JUNCTION      6.16    54.88     0  04:25     0.00443      0.0391       0.234
  86.00000             JUNCTION      4.46   271.97     0  00:43     0.00321       0.188       0.041
  87.00000             JUNCTION      0.00    68.44     0  00:35           0      0.0491       0.053
  89.00000             JUNCTION      0.00   194.80     0  00:33           0       0.135       0.500
  9.00000              JUNCTION      7.56     7.56     0  00:00     0.00544     0.00544       0.736
  91.00000             JUNCTION      0.00    68.44     0  00:35           0      0.0491       0.100
  912                  JUNCTION     13.61    13.61     0  00:00      0.0098      0.0098       0.194
  914                  JUNCTION      0.00   175.04     0  00:38           0       0.126       0.214
  916                  JUNCTION    106.60   106.60     0  00:00      0.0767      0.0767       0.137
  918                  JUNCTION      0.00  1419.64     0  08:58           0        0.87       0.073
  920                  JUNCTION      0.00    85.80     0  07:23           0      0.0605       1.530
  930                  JUNCTION      0.00    45.08     0  06:49           0      0.0317       0.107
  934                  JUNCTION      0.00    45.08     0  07:33           0      0.0319       0.806
  940                  JUNCTION      0.00  2709.59     0  00:00           0       0.883       0.350
  952                  JUNCTION      0.00   260.44     0  00:42           0       0.179       0.088
  954                  JUNCTION      0.00   635.00     0  00:00           0       0.173       1.392
  958                  JUNCTION      0.00   385.36     0  00:03           0      0.0245       4.331
  96.00000             JUNCTION    168.20   194.69     0  00:32       0.121       0.135       0.203
  962                  JUNCTION      0.00  1951.77     0  00:02           0       0.408       0.563
  964                  JUNCTION      0.00   570.04     0  09:15           0       0.403       0.063
  97.00000             JUNCTION      0.00    15.04     0  00:26           0     0.00388       0.636
  970                  JUNCTION      0.00  1234.72     0  00:16           0       0.734      46.531
  974                  JUNCTION      0.00   928.52     0  00:00           0       0.656       0.710
  976                  JUNCTION      0.00   694.04     0  09:17           0        0.49       0.141
  98.00000             JUNCTION     14.68    29.05     0  00:27      0.0106      0.0144       1.008
  980                  JUNCTION      0.00   359.64     0  00:00           0      0.0838       1.864
  990                  JUNCTION      4.64     4.64     0  00:00     0.00334     0.00334       0.556
  992                  JUNCTION      0.00     4.64     0  01:43           0     0.00332       0.317
  994                  JUNCTION      0.00     4.64     0  01:27           0     0.00331       0.704
  996                  JUNCTION    212.00   216.64     0  03:54       0.153       0.156       0.415
  998                  JUNCTION      5.32     5.32     0  00:00     0.00383     0.00383       0.109
  1146                 OUTFALL       0.00   337.41     0  00:44           0       0.234       0.000
  156.00000            OUTFALL      58.36  1947.68     0  10:16       0.042        1.23       0.000
  9010                 STORAGE       0.00  1427.92     0  11:03           0       0.879      -0.425
  9012                 STORAGE       0.00   250.76     0  00:38           0       0.171      -1.094
  9014                 STORAGE       0.00    31.30     0  04:35           0      0.0227      -6.964
  9016                 STORAGE       0.00  1409.87     0  11:53           0       0.663       0.704
  9018                 STORAGE       0.00   120.73     0  00:45           0      0.0805      -3.924
  9020                 STORAGE       0.00     5.34     0  00:01           0     0.00391      -4.441
  9026                 STORAGE       0.00    28.72     0  05:37           0      0.0206      -0.850
  
  
  **********************
  Node Surcharge Summary
  **********************
  
  Surcharging occurs when water rises above the top of the highest conduit.
  ---------------------------------------------------------------------
                                               Max. Height   Min. Depth
                                   Hours       Above Crown    Below Rim
  Node                 Type      Surcharged           Feet         Feet
  ---------------------------------------------------------------------
  1008                 JUNCTION       11.85         31.220        0.000
  1052                 JUNCTION       11.95         11.057        0.000
  940                  JUNCTION       11.98         63.465        0.000
  954                  JUNCTION       11.94        109.905        0.000
  958                  JUNCTION       11.94         33.959        0.000
  970                  JUNCTION        3.28          0.000        0.000
  974                  JUNCTION       11.73         54.045        0.000
  980                  JUNCTION       11.94         38.009        0.000
  
  
  *********************
  Node Flooding Summary
  *********************
  
  Flooding refers to all water that overflows a node, whether it ponds or not.
  --------------------------------------------------------------------------
                                                             Total   Maximum
                                 Maximum   Time of Max       Flood    Ponded
                        Hours       Rate    Occurrence      Volume     Depth
  Node                 Flooded       GPM   days hr:min    10^6 gal      Feet
  --------------------------------------------------------------------------
  970                     3.28    202.23      0  11:52       0.038     0.000
  9016                    0.03    338.72      0  11:54       0.000     0.000
  
  
  **********************
  Storage Volume Summary
  **********************
  
  ------------------------------------------------------------------------------------------------
                         Average    Avg   Evap  Exfil     Maximum    Max    Time of Max    Maximum
                          Volume   Pcnt   Pcnt   Pcnt      Volume   Pcnt     Occurrence    Outflow
  Storage Unit          1000 ftł   Full   Loss   Loss    1000 ftł   Full    days hr:min        GPM
  ------------------------------------------------------------------------------------------------
  9010                     0.004    0.3    0.0    0.0       1.335  100.0       0  00:00    2709.59
  9012                     0.001    0.1    0.0    0.0       0.299   22.4       0  00:00     635.00
  9014                     0.001    0.6    0.0    0.0       0.129  100.0       0  00:00     260.00
  9016                     0.148   46.9    0.0    0.0       0.317  100.0       0  11:43     928.52
  9018                     0.001    0.8    0.0    0.0       0.135  100.0       0  00:00     359.64
  9020                     0.000    1.5    0.0    0.0       0.012  100.0       0  00:00      15.96
  9026                     0.000    0.1    0.0    0.0       0.028   20.0       0  00:00      86.13
  
  
  ***********************
  Outfall Loading Summary
  ***********************
  
  -----------------------------------------------------------
                         Flow       Avg       Max       Total
                         Freq      Flow      Flow      Volume
  Outfall Node           Pcnt       GPM       GPM    10^6 gal
  -----------------------------------------------------------
  1146                  99.55    327.15    337.41       0.234
  156.00000            100.00   1713.36   1947.68       1.230
  -----------------------------------------------------------
  System                99.77   2040.52   2279.47       1.464
  
  
  ********************
  Link Flow Summary
  ********************
  
  -----------------------------------------------------------------------------
                                 Maximum  Time of Max   Maximum    Max/    Max/
                                  |Flow|   Occurrence   |Veloc|    Full    Full
  Link                 Type          GPM  days hr:min    ft/sec    Flow   Depth
  -----------------------------------------------------------------------------
  10002                CONDUIT     99.92     0  01:21      3.01    0.15    0.26
  10004                CONDUIT    670.92     0  09:17      2.94    0.77    0.63
  10006                CONDUIT    694.04     0  09:18      2.83    0.80    0.69
  10014                CONDUIT    406.76     0  00:03      5.11    8.30    1.00
  10020                CONDUIT      4.64     0  01:43      1.19    0.02    0.09
  10022                CONDUIT      4.64     0  01:27      1.37    0.01    0.08
  10024                CONDUIT      4.64     0  03:54      0.27    0.02    0.25
  10026                CONDUIT    216.64     0  01:25      2.77    0.42    0.55
  10028                CONDUIT     16.91     0  00:09      1.80    2.01    0.91
  10034                CONDUIT      5.34     0  00:01      5.58    0.02    0.54
  1007.00000           CONDUIT     14.04     0  05:46      1.65    0.05    0.15
  1008.00000           CONDUIT     16.56     0  00:49      2.58    0.03    0.20
  1009.00000           CONDUIT     11.52     0  09:13      1.07    0.08    0.18
  1018.00000           CONDUIT     26.49     0  00:32      1.19    0.05    0.15
  1019.00000           CONDUIT     15.65     0  00:25      1.44    0.03    0.12
  1030.00000           CONDUIT     14.37     0  00:27      0.93    0.03    0.12
  10300                CONDUIT     85.80     0  08:58      2.05    0.11    0.23
  10308                CONDUIT   1420.31     0  11:03      5.49    0.87    0.69
  1031.00000           CONDUIT     15.04     0  00:26      1.42    0.03    0.12
  10316                CONDUIT    120.13     0  00:15      4.65    0.13    0.23
  10318                CONDUIT    120.73     0  00:45     12.99    0.03    0.56
  10322                CONDUIT      0.00     0  00:00      0.00    0.00    0.50
  10324                CONDUIT     47.23     0  00:04      2.73    0.09    0.21
  10326                CONDUIT     45.25     0  00:10      2.00    0.11    0.22
  10328                CONDUIT     44.76     0  00:16      1.85    0.11    0.24
  10330                CONDUIT     45.27     0  00:16      1.43    0.14    0.26
  10332                CONDUIT     44.87     0  00:19      1.58    0.14    0.24
  10334                CONDUIT    978.94     0  11:45      5.12    0.32    0.40
  10336                CONDUIT   1409.87     0  11:53     13.65    0.11    0.73
  10342                CONDUIT     91.35     0  08:20      1.31    0.08    0.19
  10346                CONDUIT     36.60     0  00:15      1.01    0.03    0.12
  10350                CONDUIT      8.26     0  00:29      1.27    0.07    0.22
  10352                CONDUIT     20.03     0  03:23      2.35    0.16    0.27
  10354                CONDUIT     31.80     0  00:29      2.50    0.09    0.20
  10356                CONDUIT      6.32     0  00:14      1.63    0.05    0.16
  10358                CONDUIT     18.09     0  00:19      2.22    0.15    0.26
  10360                CONDUIT     29.86     0  00:15      2.45    0.08    0.20
  10362                CONDUIT     61.66     0  04:07      2.74    0.20    0.30
  10364                CONDUIT     61.66     0  11:11      2.41    0.24    0.33
  10366                CONDUIT     85.19     0  02:31      2.19    0.44    0.45
  10370                CONDUIT     85.19     0  04:56      2.22    0.43    0.45
  10372                CONDUIT    100.81     0  02:02      2.36    0.22    0.32
  10374                CONDUIT    102.03     0  01:29      2.36    0.22    0.32
  10378                CONDUIT    158.46     0  00:45      2.36    0.38    0.71
  10382                CONDUIT    102.03     0  01:22      4.01    0.11    0.22
  10386                CONDUIT      0.00     0  00:00      0.00    0.00    0.04
  10390                CONDUIT     18.16     0  09:19      1.36    0.10    0.21
  10392                CONDUIT      5.28     0  01:42      0.95    0.03    0.11
  10396                CONDUIT      3.80     0  00:52      0.93    0.02    0.09
  10404                CONDUIT     14.36     0  02:04      1.27    0.08    0.19
  10406                CONDUIT      1.94     0  00:20      1.14    0.02    0.09
  10408                CONDUIT      1.94     0  05:32      1.14    0.02    0.09
  10412                CONDUIT    263.41     0  00:42      4.02    0.21    0.33
  10414                CONDUIT    267.51     0  00:43      3.56    0.26    0.35
  10418                CONDUIT    488.54     0  10:34      2.51    0.36    0.38
  10420                CONDUIT    488.54     0  08:36      3.39    0.21    0.31
  10422                CONDUIT     23.56     0  00:04      2.89    0.05    0.21
  10426                CONDUIT     18.16     0  01:32      1.29    0.10    0.22
  10428                CONDUIT     18.16     0  08:12      1.39    0.10    0.21
  10430                CONDUIT     28.72     0  05:37      7.03    0.04    0.52
  10434                CONDUIT     96.20     0  06:35      2.19    0.23    0.32
  10436                CONDUIT     14.82     0  04:25      0.89    0.06    0.16
  10440                CONDUIT    538.74     0  04:26      3.18    0.50    0.49
  10442                CONDUIT   1951.77     0  00:02     11.81    1.64    0.61
  10444                CONDUIT    118.08     0  00:03      3.25    1.84    0.90
  10446                CONDUIT     66.47     0  00:15      1.90    0.17    0.43
  10448                CONDUIT    337.41     0  00:44      2.99    0.88    0.68
  10450                CONDUIT     34.44     0  07:50      2.08    0.13    0.24
  10452                CONDUIT    228.71     0  00:38      2.31    0.42    0.43
  10454                CONDUIT     13.62     0  00:07      2.10    0.03    0.20
  10456                CONDUIT    250.76     0  00:38     12.03    0.06    0.55
  10458                CONDUIT    194.34     0  00:36      2.18    0.36    0.39
  10460                CONDUIT    243.88     0  00:42      3.33    0.25    0.34
  10464                CONDUIT    149.88     0  02:37      1.05    0.14    0.31
  10466                CONDUIT    271.97     0  00:43      3.44    0.27    0.36
  10468                CONDUIT     20.03     0  00:32      2.28    0.17    0.28
  10470                CONDUIT     18.09     0  01:22      2.22    0.15    0.26
  10472                CONDUIT     37.32     0  00:15      0.95    0.03    0.12
  10474                CONDUIT      1.00     0  01:04      0.26    0.01    0.16
  10476                CONDUIT     56.01     0  00:13      2.01    0.27    0.39
  10480                CONDUIT    194.35     0  00:36      2.17    0.36    0.39
  10482                CONDUIT    633.11     0  00:10      3.09    0.72    0.56
  10484                CONDUIT    570.04     0  09:15      2.83    0.66    0.56
  10486                CONDUIT    658.30     0  00:10      2.94    0.82    0.61
  10488                CONDUIT    796.08     0  09:19      3.08    0.92    0.69
  10490                CONDUIT    796.08     0  09:20      5.02    0.43    0.46
  10492                CONDUIT    570.04     0  09:16      2.93    0.65    0.58
  10494                CONDUIT    670.92     0  09:17      2.86    0.78    0.63
  10500                CONDUIT    110.10     0  04:26      1.27    0.17    0.38
  10502                CONDUIT    110.10     0  04:25      2.06    0.17    0.27
  10504                CONDUIT      0.91     0  00:44      0.89    0.01    0.06
  10506                CONDUIT      3.41     0  01:51      0.98    0.01    0.08
  10508                CONDUIT      3.41     0  06:02      0.96    0.01    0.08
  10510                CONDUIT     10.56     0  09:07      1.35    0.04    0.14
  10512                CONDUIT      0.91     0  01:23      0.90    0.01    0.06
  10514                CONDUIT      1.82     0  02:38      0.84    0.01    0.06
  1052.00000           CONDUIT     15.92     0  00:24      1.47    0.03    0.12
  10520                CONDUIT      5.28     0  00:44      0.96    0.03    0.11
  1058.00000           CONDUIT      0.00     0  00:00      0.00    0.00    0.00
  1059.00000           CONDUIT    194.80     0  00:33      2.34    0.45    0.47
  1062.00000           CONDUIT      0.00     0  00:00      0.00    0.00    0.00
  1063.00000           CONDUIT      0.00     0  00:00      0.00    0.00    0.00
  1070.00000           CONDUIT      0.84     0  00:17      0.18    0.00    0.13
  1075.00000           CONDUIT      6.00     0  01:00      2.01    0.01    0.14
  1076.00000           CONDUIT      4.72     0  00:58      1.09    0.02    0.15
  1089.00000           CONDUIT      4.28     0  01:14      1.63    0.01    0.07
  1098.00000           CONDUIT      1.28     0  00:27      0.64    0.00    0.07
  1101.00000           CONDUIT      3.44     0  03:15      0.68    0.01    0.11
  1102.00000           CONDUIT      1.72     0  00:32      0.90    0.00    0.07
  1103.00000           CONDUIT      3.44     0  01:49      0.77    0.02    0.15
  1119.00000           CONDUIT     10.72     0  06:41      1.04    0.07    0.17
  1123.00000           CONDUIT      0.00     0  00:00      0.00    0.00    0.08
  1124.00000           CONDUIT      0.00     0  00:00      0.00    0.00    0.00
  1126.00000           CONDUIT      4.08     0  01:47      2.21    0.01    0.05
  1129.00000           CONDUIT      4.52     0  06:27      1.71    0.01    0.07
  1130.00000           CONDUIT      7.56     0  01:33      2.07    0.01    0.09
  1132.00000           CONDUIT      4.52     0  00:53      1.20    0.01    0.13
  1135.00000           CONDUIT      0.00     0  00:00      0.00    0.00    0.00
  1139.00000           CONDUIT      0.00     0  00:00      0.00    0.00    0.00
  1140.00000           CONDUIT      0.00     0  00:00      0.00    0.00    0.00
  1141.00000           CONDUIT      0.69     0  00:45      0.66    0.00    0.04
  1143.00000           CONDUIT      1.33     0  00:14      0.56    0.03    0.13
  1149.00000           CONDUIT      9.28     0  07:11      3.14    0.01    0.08
  1152.00000           CONDUIT      0.28     0  08:04      0.28    0.00    0.04
  1156.00000           CONDUIT      0.00     0  00:00      0.00    0.00    0.02
  1157.00000           CONDUIT      0.31     0  00:17      0.50    0.00    0.03
  1159.00000           CONDUIT      0.30     0  00:21      0.36    0.00    0.10
  1166.00000           CONDUIT      0.00     0  00:00      0.00    0.00    0.00
  1168.00000           CONDUIT      0.00     0  00:00      0.00    0.00    0.00
  1171.00000           CONDUIT      0.00     0  00:00      0.00    0.00    0.00
  1177.00000           CONDUIT      0.00     0  00:00      0.00    0.00    0.00
  1189.00000           CONDUIT     78.56     0  06:34      1.86    0.22    0.32
  1190.00000           CONDUIT      5.20     0  02:03      0.45    0.03    0.21
  1191.00000           CONDUIT      5.20     0  01:25      1.10    0.02    0.10
  1192.00000           CONDUIT     63.36     0  04:16      1.81    0.18    0.27
  1193.00000           CONDUIT     49.60     0  09:14      2.13    0.21    0.31
  1196.00000           CONDUIT     63.36     0  03:58      2.79    0.09    0.20
  1199.00000           CONDUIT     55.32     0  03:49      2.71    0.08    0.19
  1206.00000           CONDUIT      5.20     0  03:15      1.09    0.02    0.10
  1207.00000           CONDUIT      5.20     0  03:01      1.10    0.02    0.10
  1209.00000           CONDUIT     69.68     0  08:05      2.18    0.15    0.26
  1215.00000           CONDUIT      5.20     0  01:31      1.10    0.02    0.10
  1216.00000           CONDUIT      5.20     0  02:09      1.10    0.02    0.10
  1219.00000           CONDUIT     12.47     0  00:13      1.65    0.02    0.17
  1220.00000           CONDUIT     96.20     0  05:53      2.01    0.27    0.34
  623.00000            CONDUIT     44.52     0  05:43      2.45    0.15    0.26
  625.00000            CONDUIT      0.00     0  00:00      0.00    0.00    0.00
  626.00000            CONDUIT      8.00     0  00:02      3.21    0.01    0.13
  627.00000            CONDUIT      7.64     0  01:48      3.27    0.01    0.11
  628.00000            CONDUIT      7.64     0  02:16      0.93    0.05    0.15
  629.00000            CONDUIT      7.64     0  01:56      2.46    0.01    0.10
  630.00000            CONDUIT      7.64     0  02:03      1.83    0.02    0.09
  632.00000            CONDUIT      7.64     0  01:53      0.89    0.05    0.18
  633.00000            CONDUIT      7.64     0  10:10      0.96    0.05    0.15
  634.00000            CONDUIT      0.00     0  00:00      0.00    0.00    0.00
  635.00000            CONDUIT      7.64     0  09:02      2.06    0.02    0.09
  636.00000            CONDUIT      7.64     0  03:54      0.26    0.00    0.52
  637.00000            CONDUIT      0.00     0  00:00      0.00    0.00    0.00
  638.00000            CONDUIT      7.64     0  07:09      1.23    0.05    0.12
  639.00000            CONDUIT     14.32     0  10:37      2.13    0.04    0.13
  640.00000            CONDUIT      0.00     0  00:00      0.00    0.00    0.00
  641.00000            CONDUIT      0.00     0  00:00      0.00    0.00    0.00
  642.00000            CONDUIT      0.00     0  00:00      0.00    0.00    0.00
  643.00000            CONDUIT      0.00     0  00:00      0.00    0.00    0.00
  644.00000            CONDUIT      0.00     0  00:00      0.00    0.00    0.00
  645.00000            CONDUIT      6.68     0  01:17      1.74    0.01    0.06
  646.00000            CONDUIT      6.68     0  04:33      1.28    0.01    0.07
  648.00000            CONDUIT     27.84     0  07:23      3.01    0.06    0.16
  652.00000            CONDUIT     40.28     0  05:42      2.43    0.13    0.24
  654.00000            CONDUIT     33.32     0  02:47      2.36    0.10    0.22
  656.00000            CONDUIT     27.84     0  06:05      1.61    0.14    0.25
  657.00000            CONDUIT     14.32     0  02:11      0.73    0.04    0.27
  658.00000            CONDUIT     13.53     0  00:36      2.54    0.08    0.23
  665.00000            CONDUIT     13.72     0  01:48      1.16    0.07    0.19
  675.00000            CONDUIT     15.31     0  00:03      2.63    0.04    0.13
  678.00000            CONDUIT     66.91     0  00:39      1.36    0.15    0.26
  679.00000            CONDUIT     28.50     0  00:35      0.90    0.06    0.19
  680.00000            CONDUIT      7.28     0  04:22      2.35    0.04    0.13
  681.00000            CONDUIT      7.28     0  01:01      1.11    0.01    0.09
  682.00000            CONDUIT      7.28     0  00:44      1.85    0.00    0.06
  688.00000            CONDUIT     28.73     0  00:31      1.32    0.07    0.17
  689.00000            CONDUIT      7.94     0  00:28      0.41    0.02    0.13
  690.00000            CONDUIT      8.31     0  00:23      0.71    0.02    0.09
  692.00000            CONDUIT     39.64     0  00:38      0.91    0.09    0.23
  695.00000            CONDUIT      0.56     0  07:48      0.50    0.01    0.07
  696.00000            CONDUIT    468.00     0  00:47      3.90    0.16    0.27
  697.00000            CONDUIT    175.04     0  02:01      2.02    0.37    0.38
  698.00000            CONDUIT     57.63     0  00:15      2.35    0.22    0.32
  702.00000            CONDUIT    170.27     0  00:17      4.76    0.17    0.28
  703.00000            CONDUIT     82.92     0  00:42      1.04    0.19    0.36
  704.00000            CONDUIT     67.88     0  00:17      3.51    0.16    0.27
  705.00000            CONDUIT    102.52     0  00:01      4.53    0.19    0.42
  724.00000            CONDUIT     66.90     0  00:40      1.20    0.15    0.28
  726.00000            CONDUIT    102.40     0  03:03      1.93    0.33    0.37
  727.00000            CONDUIT     67.88     0  00:17      2.48    0.26    0.35
  728.00000            CONDUIT    102.40     0  00:47      7.09    0.05    0.15
  731.00000            CONDUIT    253.08     0  00:42      2.56    0.38    0.42
  733.00000            CONDUIT     23.32     0  00:14      2.67    0.05    0.16
  736.00000            CONDUIT    276.95     0  00:43      2.77    0.39    0.43
  737.00000            CONDUIT    276.95     0  00:44      2.21    0.28    0.39
  738.00000            CONDUIT    276.93     0  00:46      1.72    0.31    0.33
  741.00000            CONDUIT     49.70     0  00:12      2.09    0.21    0.31
  743.00000            CONDUIT     51.58     0  00:06      1.61    0.42    0.44
  746.00000            CONDUIT     68.44     0  00:35      3.04    0.06    0.24
  748.00000            CONDUIT     68.44     0  00:35      2.84    0.22    0.32
  753.00000            CONDUIT     10.21     0  00:22      0.27    0.01    0.37
  754.00000            CONDUIT      4.86     0  00:30      0.48    0.00    0.33
  755.00000            CONDUIT   1421.17     0  09:17      6.54    0.26    0.38
  756.00000            CONDUIT   1889.32     0  10:16     11.82    0.19    0.30
  758.00000            CONDUIT      0.56     0  05:28      0.25    0.00    0.15
  766.00000            CONDUIT      3.64     0  02:03      1.08    0.01    0.08
  767.00000            CONDUIT     15.72     0  09:38      1.63    0.06    0.17
  787.00000            CONDUIT     15.16     0  03:51      1.25    0.09    0.20
  788.00000            CONDUIT      6.84     0  11:57      2.10    0.01    0.13
  789.00000            CONDUIT     28.12     0  07:06      2.76    0.07    0.17
[...]
  10514                   1.27   0.00  0.00  0.00  0.00  0.00  0.00  1.00  0.00  0.00
  1052.00000              1.00   0.01  0.00  0.00  0.00  0.00  0.00  0.99  0.00  0.00
  10520                   1.03   0.00  0.00  0.00  0.00  0.00  0.00  1.00  0.00  0.00
  1058.00000              4.99   1.00  0.00  0.00  0.00  0.00  0.00  0.00  0.00  0.00
  1059.00000              1.00   0.00  0.00  0.00  1.00  0.00  0.00  0.00  0.00  0.00
  1062.00000              3.74   1.00  0.00  0.00  0.00  0.00  0.00  0.00  0.00  0.00
  1063.00000              5.50   1.00  0.00  0.00  0.00  0.00  0.00  0.00  0.00  0.00
  1070.00000              1.07   0.00  0.00  0.00  1.00  0.00  0.00  0.00  1.00  0.00
  1075.00000              1.00   0.00  0.00  0.00  0.99  0.01  0.00  0.00  1.00  0.00
  1076.00000              1.00   0.00  0.00  0.00  0.99  0.01  0.00  0.00  0.99  0.00
  1089.00000              1.00   0.00  0.00  0.00  0.00  0.00  0.00  1.00  0.00  0.00
  1098.00000              1.00   0.00  0.00  0.00  1.00  0.00  0.00  0.00  1.00  0.00
  1101.00000              1.00   0.00  0.01  0.00  0.99  0.00  0.00  0.00  0.99  0.00
  1102.00000              1.00   0.00  0.00  0.00  1.00  0.00  0.00  0.00  1.00  0.00
  1103.00000              1.00   0.00  0.00  0.00  1.00  0.00  0.00  0.00  0.99  0.00
  1119.00000              1.00   0.00  0.00  0.00  0.00  0.00  0.00  1.00  0.00  0.00
  1123.00000              1.00   0.00  1.00  0.00  0.00  0.00  0.00  0.00  0.00  0.00
  1124.00000              1.09   1.00  0.00  0.00  0.00  0.00  0.00  0.00  0.00  0.00
  1126.00000              1.00   0.00  0.00  0.00  0.00  0.00  0.00  1.00  0.00  0.00
  1129.00000              1.00   0.00  0.00  0.00  0.00  0.00  0.00  1.00  0.00  0.00
  1130.00000              1.00   0.00  0.00  0.00  0.00  0.00  0.00  1.00  0.00  0.00
  1132.00000              1.00   0.00  0.00  0.00  0.99  0.01  0.00  0.00  1.00  0.00
  1135.00000              1.00   1.00  0.00  0.00  0.00  0.00  0.00  0.00  0.00  0.00
  1139.00000              1.00   1.00  0.00  0.00  0.00  0.00  0.00  0.00  0.00  0.00
  1140.00000              1.00   1.00  0.00  0.00  0.00  0.00  0.00  0.00  0.00  0.00
  1141.00000              1.00   0.06  0.00  0.00  0.91  0.02  0.00  0.00  0.93  0.00
  1143.00000              1.00   0.00  0.00  0.00  1.00  0.00  0.00  0.00  0.98  0.00
  1149.00000              1.73   0.00  0.00  0.00  0.00  0.00  0.00  1.00  0.00  0.00
  1152.00000              1.00   0.06  0.00  0.00  0.00  0.00  0.00  0.94  0.00  0.00
  1156.00000              1.64   0.00  1.00  0.00  0.00  0.00  0.00  0.00  0.00  0.00
  1157.00000              1.00   0.00  0.00  0.00  1.00  0.00  0.00  0.00  0.83  0.00
  1159.00000              1.00   0.00  0.00  0.00  1.00  0.00  0.00  0.00  0.97  0.00
  1166.00000              1.00   1.00  0.00  0.00  0.00  0.00  0.00  0.00  0.00  0.00
  1168.00000              1.48   1.00  0.00  0.00  0.00  0.00  0.00  0.00  0.00  0.00
  1171.00000              1.00   1.00  0.00  0.00  0.00  0.00  0.00  0.00  0.00  0.00
  1177.00000              1.00   1.00  0.00  0.00  0.00  0.00  0.00  0.00  0.00  0.00
  1189.00000              1.00   0.00  0.00  0.00  0.97  0.00  0.00  0.03  0.00  0.00
  1190.00000              1.00   0.01  0.01  0.00  0.99  0.00  0.00  0.00  0.99  0.00
  1191.00000              1.00   0.00  0.00  0.00  0.00  0.00  0.00  1.00  0.00  0.00
  1192.00000              1.00   0.00  0.00  0.00  0.00  0.00  0.00  1.00  0.00  0.00
  1193.00000              1.00   0.00  0.00  0.00  0.00  0.00  0.00  1.00  0.00  0.00
  1196.00000              1.00   0.00  0.00  0.00  0.00  0.00  0.00  1.00  0.00  0.00
  1199.00000              1.00   0.00  0.00  0.00  0.00  0.00  0.00  1.00  0.00  0.00
  1206.00000              1.00   0.00  0.00  0.00  0.00  0.00  0.00  1.00  0.00  0.00
  1207.00000              1.00   0.01  0.00  0.00  0.00  0.00  0.00  0.99  0.00  0.00
  1209.00000              1.00   0.00  0.00  0.00  0.00  0.00  0.00  1.00  0.00  0.00
  1215.00000              1.00   0.00  0.00  0.00  0.00  0.00  0.00  1.00  0.00  0.00
  1216.00000              1.00   0.00  0.00  0.00  0.00  0.00  0.00  1.00  0.00  0.00
  1219.00000              1.00   0.00  0.00  0.00  0.98  0.01  0.00  0.02  0.98  0.00
  1220.00000              1.00   0.00  0.00  0.00  0.00  0.00  0.00  1.00  0.00  0.00
  623.00000               1.00   0.00  0.00  0.00  0.00  0.00  0.00  1.00  0.00  0.00
  625.00000               1.00   1.00  0.00  0.00  0.00  0.00  0.00  0.00  0.00  0.00
  626.00000               1.00   0.00  0.00  0.00  0.00  1.00  0.00  0.00  1.00  0.00
  627.00000               1.45   0.02  0.00  0.00  0.00  0.98  0.00  0.00  0.98  0.00
  628.00000               1.00   0.00  0.00  0.00  0.00  0.00  0.00  1.00  0.00  0.00
  629.00000               1.66   0.00  0.00  0.00  0.00  0.99  0.00  0.00  0.99  0.00
  630.00000               1.00   0.00  0.00  0.00  0.00  0.00  0.00  1.00  0.00  0.00
  632.00000               1.00   0.01  0.00  0.00  0.99  0.00  0.00  0.00  0.98  0.00
  633.00000               1.00   0.01  0.00  0.00  0.99  0.00  0.00  0.00  0.00  0.00
  634.00000               1.00   1.00  0.00  0.00  0.00  0.00  0.00  0.00  0.00  0.00
  635.00000               1.49   0.02  0.00  0.00  0.00  0.00  0.00  0.98  0.00  0.00
  636.00000               1.70   0.00  0.02  0.00  0.98  0.00  0.00  0.00  0.98  0.00
  637.00000               1.31   1.00  0.00  0.00  0.00  0.00  0.00  0.00  0.00  0.00
  638.00000               1.00   0.02  0.00  0.00  0.00  0.98  0.00  0.00  0.00  0.00
  639.00000               1.00   0.04  0.00  0.00  0.00  0.00  0.00  0.96  0.00  0.00
  640.00000               1.00   1.00  0.00  0.00  0.00  0.00  0.00  0.00  0.00  0.00
  641.00000               1.00   1.00  0.00  0.00  0.00  0.00  0.00  0.00  0.00  0.00
  642.00000               1.00   1.00  0.00  0.00  0.00  0.00  0.00  0.00  0.00  0.00
  643.00000               1.00   1.00  0.00  0.00  0.00  0.00  0.00  0.00  0.00  0.00
  644.00000               1.00   1.00  0.00  0.00  0.00  0.00  0.00  0.00  0.00  0.00
  645.00000               1.00   0.00  0.00  0.00  0.00  0.00  0.00  1.00  0.00  0.00
  646.00000               1.39   0.00  0.00  0.00  0.00  0.00  0.00  1.00  0.00  0.00
  648.00000               1.00   0.00  0.00  0.00  0.00  0.00  0.00  1.00  0.00  0.00
  652.00000               1.00   0.00  0.00  0.00  0.00  0.00  0.00  1.00  0.00  0.00
  654.00000               1.00   0.00  0.00  0.00  0.00  0.00  0.00  1.00  0.00  0.00
  656.00000               1.00   0.00  0.00  0.00  0.00  0.00  0.00  1.00  0.00  0.00
  657.00000               1.00   0.00  0.04  0.00  0.96  0.00  0.00  0.00  0.96  0.00
  658.00000               1.00   0.00  0.00  0.00  0.00  0.95  0.00  0.05  0.95  0.00
  665.00000               1.00   0.00  0.00  0.00  1.00  0.00  0.00  0.00  0.99  0.00
  675.00000               1.00   0.00  0.00  0.00  0.00  1.00  0.00  0.00  0.00  0.00
  678.00000               1.00   0.00  0.00  0.00  1.00  0.00  0.00  0.00  0.94  0.00
  679.00000               1.00   0.00  0.00  0.00  1.00  0.00  0.00  0.00  1.00  0.00
  680.00000               1.00   0.00  0.00  0.00  0.00  0.00  0.00  1.00  0.00  0.00
  681.00000               1.00   0.00  0.00  0.00  0.99  0.01  0.00  0.00  0.99  0.00
  682.00000               1.63   0.00  0.00  0.00  0.00  1.00  0.00  0.00  0.99  0.00
  688.00000               1.00   0.00  0.00  0.00  1.00  0.00  0.00  0.00  0.95  0.00
  689.00000               1.00   0.00  0.01  0.00  0.99  0.00  0.00  0.00  0.99  0.00
  690.00000               1.00   0.00  0.00  0.00  1.00  0.00  0.00  0.00  0.96  0.00
  692.00000               1.00   0.00  0.00  0.00  1.00  0.00  0.00  0.00  1.00  0.00
  695.00000               1.00   0.00  0.00  0.00  0.00  0.00  0.00  1.00  0.00  0.00
  696.00000               1.00   0.00  0.00  0.00  0.00  0.00  0.00  1.00  0.00  0.00
  697.00000               1.00   0.00  0.00  0.00  0.00  0.00  0.00  1.00  0.00  0.00
  698.00000               1.00   0.00  0.00  0.00  0.00  0.00  0.00  1.00  0.00  0.00
  702.00000               1.03   0.00  0.00  0.00  0.00  0.00  0.00  1.00  0.00  0.00
  703.00000               1.00   0.00  0.00  0.00  1.00  0.00  0.00  0.00  1.00  0.00
  704.00000               1.00   0.00  0.00  0.00  0.00  0.00  0.00  1.00  0.00  0.00
  705.00000               1.00   0.00  0.00  0.00  0.00  1.00  0.00  0.00  1.00  0.00
  724.00000               1.00   0.00  0.00  0.00  1.00  0.00  0.00  0.00  1.00  0.00
  726.00000               1.00   0.00  0.00  0.00  0.00  0.00  0.00  1.00  0.00  0.00
  727.00000               2.72   0.00  0.00  0.00  0.00  0.00  0.00  1.00  0.00  0.00
  728.00000               7.34   0.00  0.00  0.00  0.00  0.00  0.00  1.00  0.00  0.00
  731.00000               1.00   0.00  0.00  0.00  0.99  0.00  0.00  0.01  0.00  0.00
  733.00000               1.55   0.00  0.00  0.00  0.00  0.00  0.00  1.00  0.00  0.00
  736.00000               1.00   0.00  0.00  0.00  0.00  0.00  0.00  1.00  0.00  0.00
  737.00000               1.00   0.00  0.00  0.00  0.99  0.00  0.00  0.01  0.99  0.00
  738.00000               1.00   0.00  0.00  0.00  1.00  0.00  0.00  0.00  0.00  0.00
  741.00000               1.00   0.00  0.00  0.00  0.00  0.00  0.00  1.00  0.00  0.00
  743.00000               1.00   0.00  0.00  0.00  1.00  0.00  0.00  0.00  0.00  0.00
  746.00000               1.92   0.00  0.00  0.00  0.00  1.00  0.00  0.00  1.00  0.00
  748.00000               1.00   0.00  0.00  0.00  0.00  0.00  0.00  1.00  0.00  0.00
  753.00000               1.00   0.00  0.00  0.00  1.00  0.00  0.00  0.00  0.01  0.00
  754.00000               6.36   0.00  0.00  0.00  1.00  0.00  0.00  0.00  0.02  0.00
  755.00000               8.68   0.00  0.00  0.00  0.00  0.00  0.00  0.99  0.00  0.00
  756.00000               9.38   0.00  0.00  0.00  0.00  1.00  0.00  0.00  0.01  0.00
  758.00000               1.00   0.00  0.00  0.00  1.00  0.00  0.00  0.00  1.00  0.00
  766.00000               1.00   0.00  0.00  0.00  0.00  0.00  0.00  1.00  0.00  0.00
  767.00000               1.00   0.00  0.00  0.00  0.00  0.00  0.00  1.00  0.00  0.00
  787.00000               1.00   0.00  0.00  0.00  0.00  0.00  0.00  1.00  0.00  0.00
  788.00000               1.00   0.00  0.00  0.00  0.98  0.01  0.00  0.01  0.99  0.00
  789.00000               1.00   0.00  0.00  0.00  0.00  0.00  0.00  1.00  0.00  0.00
  790.00000               1.00   0.00  0.00  0.00  0.00  0.00  0.00  1.00  0.00  0.00
  795.00000               1.00   0.00  0.00  0.00  0.00  0.00  0.00  1.00  0.00  0.00
  798.00000               1.00   0.00  0.00  0.00  0.00  0.00  0.00  1.00  0.00  0.00
  808.00000               1.00   0.00  0.00  0.00  0.00  0.00  0.00  1.00  0.00  0.00
  810.00000               1.54   0.00  0.00  0.00  0.00  0.00  0.00  1.00  0.00  0.00
  817.00000               1.00   0.00  0.00  0.00  0.00  0.00  0.00  1.00  0.00  0.00
  818.00000               1.00   0.00  0.00  0.00  0.00  0.00  0.00  1.00  0.00  0.00
  819.00000               1.00   0.00  0.00  0.00  0.00  0.99  0.00  0.01  0.99  0.00
  820.00000               1.00   0.00  0.00  0.00  0.00  0.99  0.00  0.01  0.99  0.00
  822.00000               1.00   0.00  0.00  0.00  0.00  1.00  0.00  0.00  1.00  0.00
  828.00000               1.00   0.00  0.00  0.00  0.00  0.00  0.00  1.00  0.00  0.00
  837.00000               1.00   0.00  0.00  0.00  1.00  0.00  0.00  0.00  1.00  0.00
  843.00000               1.00   0.00  0.00  0.00  0.00  0.00  0.00  1.00  0.00  0.00
  844.00000               1.00   0.00  0.00  0.00  1.00  0.00  0.00  0.00  1.00  0.00
  847.00000               1.00   0.00  0.00  0.00  0.00  0.00  0.00  1.00  0.00  0.00
  848.00000               1.00   0.00  0.00  0.00  0.00  0.00  0.00  1.00  0.00  0.00
  849.00000               1.00   0.00  0.00  0.00  0.00  0.00  0.00  1.00  0.00  0.00
  850.00000               1.00   0.00  0.00  0.00  0.00  0.00  0.00  1.00  0.00  0.00
  854.00000               1.00   0.00  0.00  0.00  0.00  0.00  0.00  1.00  0.00  0.00
  857.00000               1.00   0.00  0.00  0.00  0.00  0.00  0.00  1.00  0.00  0.00
  859.00000               1.00   0.00  0.00  0.00  0.00  0.00  0.00  1.00  0.00  0.00
  860.00000               1.00   0.00  0.00  0.00  0.00  0.00  0.00  1.00  0.00  0.00
  862.00000               1.00   0.00  0.00  0.00  1.00  0.00  0.00  0.00  1.00  0.00
  863.00000               1.00   0.00  0.00  0.00  0.00  0.00  0.00  1.00  0.00  0.00
  864.00000               1.00   0.00  0.00  0.00  0.00  0.00  0.00  1.00  0.00  0.00
  865.00000               1.00   0.00  0.00  0.00  0.00  0.00  0.00  1.00  0.00  0.00
  866.00000               1.31   0.00  0.00  0.00  0.00  0.00  0.00  1.00  0.00  0.00
  867.00000               1.00   0.00  0.00  0.00  0.00  0.00  0.00  1.00  0.00  0.00
  869.00000               1.00   0.00  0.00  0.00  0.00  0.00  0.00  1.00  0.00  0.00
  870.00000               1.00   0.00  0.00  0.00  0.00  0.00  0.00  1.00  0.00  0.00
  876.00000               1.00   0.00  0.00  0.00  0.00  0.00  0.00  1.00  0.00  0.00
  879.00000               1.00   0.00  0.00  0.00  0.00  0.00  0.00  1.00  0.00  0.00
  880.00000               1.00   0.00  0.00  0.00  0.00  0.00  0.00  1.00  0.00  0.00
  883.00000               1.00   0.00  0.01  0.00  0.99  0.00  0.00  0.00  0.99  0.00
  885.00000               1.00   0.00  0.00  0.00  1.00  0.00  0.00  0.00  1.00  0.00
  887.00000               1.00   0.00  0.00  0.00  0.00  0.00  0.00  1.00  0.00  0.00
  895.00000               1.00   0.00  0.00  0.00  0.00  0.00  0.00  1.00  0.00  0.00
  935.00000               1.00   0.00  0.00  0.00  0.00  0.99  0.00  0.01  0.99  0.00
  936.00000               1.00   0.00  0.00  0.00  0.00  0.00  0.00  1.00  0.00  0.00
  938.00000               1.00   0.00  0.00  0.00  0.00  1.00  0.00  0.00  1.00  0.00
  939.00000               1.00   0.00  0.00  0.00  1.00  0.00  0.00  0.00  1.00  0.00
  943.00000               1.00   0.00  0.00  0.00  1.00  0.00  0.00  0.00  1.00  0.00
  945.00000               1.00   0.00  0.00  0.00  1.00  0.00  0.00  0.00  1.00  0.00
  949.00000               1.00   0.00  0.00  0.00  0.00  0.00  0.00  1.00  0.00  0.00
  953.00000               1.00   0.00  0.00  0.00  0.01  0.99  0.00  0.00  0.00  0.00
  966.00000               1.00   0.00  0.00  0.00  0.99  0.01  0.00  0.00  1.00  0.00
  968.00000               1.00   0.00  0.00  0.00  0.99  0.01  0.00  0.00  1.00  0.00
  969.00000               1.35   0.00  0.00  0.00  0.00  0.00  0.00  1.00  0.00  0.00
  970.00000               1.00   0.00  0.00  0.00  0.00  1.00  0.00  0.00  1.00  0.00
  973.00000               1.00   0.00  0.00  0.00  0.00  0.00  0.00  1.00  0.00  0.00
  974.00000               1.00   0.00  0.00  0.00  0.00  0.00  0.00  1.00  0.00  0.00
  975.00000               1.00   0.00  0.00  0.00  0.00  0.00  0.00  1.00  0.00  0.00
  981.00000               1.00   0.00  0.00  0.00  0.00  0.00  0.00  1.00  0.00  0.00
  982.00000               1.00   0.00  0.00  0.00  0.00  1.00  0.00  0.00  1.00  0.00
  985.00000               1.26   0.00  0.00  0.00  0.99  0.01  0.00  0.00  1.00  0.00
  9920                    1.00   0.00  0.00  0.00  1.00  0.00  0.00  0.00  1.00  0.00
  9922                    1.00   0.00  0.00  0.00  0.99  0.01  0.00  0.00  1.00  0.00
  9924                    1.00   0.00  0.00  0.00  0.00  0.00  0.00  1.00  0.00  0.00
  9926                    1.00   0.00  0.00  0.00  1.00  0.00  0.00  0.00  0.99  0.00
  9930                    1.00   0.00  0.00  0.00  1.00  0.00  0.00  0.00  0.00  0.00
  9944                    2.55   0.00  0.00  0.00  0.00  0.00  0.00  1.00  0.00  0.00
  9952                    1.00   0.00  0.00  0.00  0.00  0.98  0.00  0.02  0.98  0.00
  9954                    1.00   0.00  0.01  0.00  0.99  0.00  0.00  0.00  0.99  0.00
  9958                    1.00   0.01  0.00  0.00  0.00  0.00  0.00  0.99  0.00  0.00
  9960                    1.93   0.00  0.00  0.00  0.00  0.00  0.00  1.00  0.00  0.00
  9964                    2.34   0.00  0.00  0.00  0.01  0.99  0.00  0.00  0.01  0.00
  9974                    1.00   0.00  0.00  0.00  0.00  1.00  0.00  0.00  1.00  0.00
  9978                    1.00   0.00  0.01  0.00  0.99  0.00  0.00  0.00  0.00  0.00
  9982                    8.09   0.00  0.00  0.00  0.01  0.99  0.00  0.00  0.01  0.00
  9984                    1.00   0.00  0.00  0.00  1.00  0.00  0.00  0.00  0.00  0.00
  9988                    1.00   0.01  0.00  0.00  0.97  0.00  0.00  0.02  0.00  0.00
  9992                    1.00   0.00  0.02  0.00  0.29  0.00  0.68  0.00  0.00  0.00
  9998                    1.00   0.00  0.04  0.00  0.00  0.00  0.96  0.00  0.00  0.00
  
  
  *************************
  Conduit Surcharge Summary
  *************************
  
  ----------------------------------------------------------------------------
                                                           Hours        Hours 
                         --------- Hours Full --------   Above Full   Capacity
  Conduit                Both Ends  Upstream  Dnstream   Normal Flow   Limited
  ----------------------------------------------------------------------------
  10014                      11.72     11.94     11.72     11.94        11.72
  10028                       0.01      0.01     11.85      0.27         0.01
  10034                       0.01      0.01      0.32      0.01         0.01
  10318                       0.01      0.01      0.21      0.01         0.01
  10336                       0.01      0.01      8.75      0.01         0.01
  10378                       0.01      0.01     11.92      0.01         0.01
  10430                       0.01      0.01      0.03      0.01         0.01
  10442                       0.01      0.01      0.01      0.02         0.01
  10444                       0.01      0.01     11.95      0.03         0.01
  10456                       0.01      0.01      0.08      0.01         0.01
  636.00000                   0.01      0.01     11.54      0.01         0.01
  9930                       11.95     11.97     11.96     11.85        11.85
  9964                        0.01      0.01      0.03      0.01         0.01
  9978                       11.85     11.85     11.94      0.05         0.01
  9982                        0.01      0.01      0.11      0.01         0.01
  9984                       11.94     11.94     11.94      0.11         0.01
  9992                        3.28      3.28     11.73     11.73         0.01
  9998                        0.01      0.01     11.53     10.58         0.01
  
  
  ***************
  Pumping Summary
  ***************
  
  ---------------------------------------------------------------------------------------------------------
                                                  Min       Avg       Max     Total     Power    % Time Off
                        Percent   Number of      Flow      Flow      Flow    Volume     Usage    Pump Curve
  Pump                 Utilized   Start-Ups       GPM       GPM       GPM  10^6 gal     Kw-hr    Low   High
  ---------------------------------------------------------------------------------------------------------
  5004                   100.00           1      0.00   1227.62   2709.59     0.883     65.52    0.0    0.0
  5006                   100.00           1      0.00    239.11    635.00     0.173     14.47    0.0    0.0
  5008                   100.00           1      0.00     33.43    260.00     0.024      1.02    0.0    0.5
  5010                   100.00           1      0.00    913.19    928.52     0.656     61.07    0.0    0.0
  5012                   100.00           1      0.00    115.76    359.64     0.084      5.40    0.0    0.5
  5014                   100.00           1      0.00      5.65     15.96     0.004      0.13    0.0    1.2
  5024                   100.00           1      0.00     28.87     86.13     0.021      1.47    0.0    0.0
  

  Analysis begun on:  Wed Jun 24 14:48:16 2026
  Analysis ended on:  Wed Jun 24 14:48:17 2026
  Total elapsed time: 00:00:01