
  EPA STORM WATER MANAGEMENT MODEL - VERSION 5.2 (Build 5.2.4)
  ------------------------------------------------------------

  WARNING 04: minimum elevation drop used for Conduit CA55MTL_004
  WARNING 04: minimum elevation drop used for Conduit CULVERT_03
  WARNING 04: minimum elevation drop used for Conduit CWC_PELTIER-007
  WARNING 04: minimum elevation drop used for Conduit L_PELTIER_002
  WARNING 08: elevation drop exceeds length for Conduit OVERLAND_03
  WARNING 03: negative offset ignored for Link OVERLAND_07
  WARNING 10: crest elevation raised to downstream invert for regulator Link O_ACD72_02
  WARNING 02: maximum depth increased for Node CSMP_OUT
  WARNING 02: maximum depth increased for Node OVERLAND_03J
  
  ****************
  Analysis Options
  ****************
  Flow Units ............... CFS
  Process Models:
    Rainfall/Runoff ........ YES
    RDII ................... NO
    Snowmelt ............... NO
    Groundwater ............ NO
    Flow Routing ........... YES
    Ponding Allowed ........ YES
    Water Quality .......... NO
  Infiltration Method ...... CURVE_NUMBER
  Flow Routing Method ...... DYNWAVE
  Surcharge Method ......... EXTRAN
  Starting Date ............ 09/13/2010 00:00:00
  Ending Date .............. 09/23/2010 06:00:00
  Antecedent Dry Days ...... 5.0
  Report Time Step ......... 00:10:00
  Wet Time Step ............ 00:05:00
  Dry Time Step ............ 00:00:00
  Routing Time Step ........ 10.00 sec
  Variable Time Step ....... YES
  Maximum Trials ........... 8
  Number of Threads ........ 1
  Head Tolerance ........... 0.001000 ft
  
  
  ERROR 323: cannot open runoff interface file F:\2017\kt_runoff.ROF.
  
  *********************
  Control Actions Taken
  *********************


  Analysis begun on:  Wed Jun 24 14:48:17 2026
  Analysis ended on:  Wed Jun 24 14:48:17 2026
  Total elapsed time: < 1 sec