
  EPA STORM WATER MANAGEMENT MODEL - VERSION 5.2 (Build 5.2.4)
  ------------------------------------------------------------

  Scenario Run :  2050MODEL 
  WARNING 04: minimum elevation drop used for Conduit 02-01-S0.02-01-T0.1
  WARNING 04: minimum elevation drop used for Conduit 09-52-I0.07-01-I0.1
  WARNING 04: minimum elevation drop used for Conduit 11-FM22.11-42-PX.1
  WARNING 04: minimum elevation drop used for Conduit 11-FM22.11-42-PX.2
  WARNING 04: minimum elevation drop used for Conduit 12-18-N0.12-19-M0.1
  WARNING 04: minimum elevation drop used for Conduit 21-50-Z0.21-51-Z0.1
  WARNING 04: minimum elevation drop used for Conduit 24-05-A0.24-06-C0.1
  WARNING 04: minimum elevation drop used for Conduit 27-FM20.27-48-IX.1
  WARNING 04: minimum elevation drop used for Conduit 27-FM20.27-48-IX.2
  WARNING 08: elevation drop exceeds length for Conduit 27-FM21.27-50-OX.1
  WARNING 08: elevation drop exceeds length for Conduit 27-FM21.27-50-OX.2
  WARNING 04: minimum elevation drop used for Conduit 28-29-E0.28-29-C0.1
  WARNING 04: minimum elevation drop used for Conduit 57-19-N0.57-21-R0.1
  WARNING 04: minimum elevation drop used for Conduit 76-FM23.76-07-JX.1
  WARNING 04: minimum elevation drop used for Conduit 76-FM23.76-07-JX.2
  WARNING 04: minimum elevation drop used for Conduit 77-28-I0.77-LS15.1
  WARNING 04: minimum elevation drop used for Conduit 78-34-P0.78-34-R0.1
  WARNING 04: minimum elevation drop used for Conduit 78-FM24.78-11-KX.1
  WARNING 04: minimum elevation drop used for Conduit 78-FM24.78-11-KX.2
  WARNING 04: minimum elevation drop used for Conduit 78-FM25.78-01-CX.1
  WARNING 04: minimum elevation drop used for Conduit 78-FM25.78-01-CX.2
  
  ****************
  Analysis Options
  ****************
  Flow Units ............... CFS
  Process Models:
    Rainfall/Runoff ........ YES
    RDII ................... YES
    Snowmelt ............... NO
    Groundwater ............ NO
    Flow Routing ........... YES
    Ponding Allowed ........ NO
    Water Quality .......... NO
  Infiltration Method ...... HORTON
  Flow Routing Method ...... DYNWAVE
  Surcharge Method ......... EXTRAN
  Starting Date ............ 01/01/2012 00:00:00
  Ending Date .............. 01/02/2012 00:00:00
  Antecedent Dry Days ...... 5.0
  Report Time Step ......... 00:05:00
  Wet Time Step ............ 00:01:00
  Dry Time Step ............ 00:00:00
  Routing Time Step ........ 10.00 sec
  Variable Time Step ....... YES
  Maximum Trials ........... 4
  Number of Threads ........ 1
  Head Tolerance ........... 0.005000 ft
  
  
  **********************           Volume        Volume
  Rainfall Dependent I/I        acre-feet      10^6 gal
  **********************        ---------     ---------
  Sewershed Rainfall ......         7.821         2.549
  RDII Produced ...........         6.675         2.175
  RDII Ratio ..............         0.853
  
  
  ERROR 331: cannot open hot start interface file C:\Users\tkampa\Documents\Sewer Modeling Files\H2OMapSWMM\Current Models\1B- MCES Upgrades\diurnalWet.HSF.

  Analysis begun on:  Wed Jun 24 14:55:34 2026
  Analysis ended on:  Wed Jun 24 14:55:34 2026
  Total elapsed time: < 1 sec