
  EPA STORM WATER MANAGEMENT MODEL - VERSION 5.2 (Build 5.2.4)
  ------------------------------------------------------------

  WARNING 03: negative offset ignored for Link 966
  WARNING 03: negative offset ignored for Link A-32-OF
  WARNING 03: negative offset ignored for Link A-34-OF
  WARNING 03: negative offset ignored for Link A-36-OF
  WARNING 04: minimum elevation drop used for Conduit A-42-40
  WARNING 04: minimum elevation drop used for Conduit JCT120E001-2
  
  *************
  Element Count
  *************
  Number of rain gages ...... 85
  Number of subcatchments ... 616
  Number of nodes ........... 602
  Number of links ........... 622
  Number of pollutants ...... 0
  Number of land uses ....... 0
  
  
  ****************
  Raingage Summary
  ****************
                                                      Data       Recording
  Name                 Data Source                    Type       Interval 
  ------------------------------------------------------------------------
  A35001_C1            d:\pwsa\ExtUA-Rain_07132009.dat
  A37002_C1            d:\pwsa\ExtUA-Rain_07132009.dat
  A41IN_C1             d:\pwsa\ExtUA-Rain_07132009.dat
  A4200__-IM_-L-05_C1  d:\pwsa\ExtUA-Rain_07132009.dat
  A4200__-IM_-L-05_C10 d:\pwsa\ExtUA-Rain_07132009.dat
  A4200__-IM_-L-05_C11 d:\pwsa\ExtUA-Rain_07132009.dat
  A4200__-IM_-L-05_C12 d:\pwsa\ExtUA-Rain_07132009.dat
  A4200__-IM_-L-05_C2  d:\pwsa\ExtUA-Rain_07132009.dat
  A4200__-IM_-L-05_C3  d:\pwsa\ExtUA-Rain_07132009.dat
  A4200__-IM_-L-05_C4  d:\pwsa\ExtUA-Rain_07132009.dat
  A4200__-IM_-L-05_C5  d:\pwsa\ExtUA-Rain_07132009.dat
  A4200__-IM_-L-05_C6  d:\pwsa\ExtUA-Rain_07132009.dat
  A4200__-IM_-L-05_C7  d:\pwsa\ExtUA-Rain_07132009.dat
  A4200__-IM_-L-05_C8  d:\pwsa\ExtUA-Rain_07132009.dat
  A4200__-IM_-L-05_C9  d:\pwsa\ExtUA-Rain_07132009.dat
  A4200__-MB_-L-09_S1  d:\pwsa\ExtUA-Rain_07132009.dat
  A4200__-MM_-L-03_C1  d:\pwsa\ExtUA-Rain_07132009.dat
  A4200__-MM_-L-03_C2  d:\pwsa\ExtUA-Rain_07132009.dat
  A4200__-MM_-L-04_C1  d:\pwsa\ExtUA-Rain_07132009.dat
  A4200__-MM_-L-04_C10 d:\pwsa\ExtUA-Rain_07132009.dat
  A4200__-MM_-L-04_C11 d:\pwsa\ExtUA-Rain_07132009.dat
  A4200__-MM_-L-04_C12 d:\pwsa\ExtUA-Rain_07132009.dat
  A4200__-MM_-L-04_C13 d:\pwsa\ExtUA-Rain_07132009.dat
  A4200__-MM_-L-04_C14 d:\pwsa\ExtUA-Rain_07132009.dat
  A4200__-MM_-L-04_C15 d:\pwsa\ExtUA-Rain_07132009.dat
  A4200__-MM_-L-04_C16 d:\pwsa\ExtUA-Rain_07132009.dat
  A4200__-MM_-L-04_C17 d:\pwsa\ExtUA-Rain_07132009.dat
  A4200__-MM_-L-04_C2  d:\pwsa\ExtUA-Rain_07132009.dat
  A4200__-MM_-L-04_C3  d:\pwsa\ExtUA-Rain_07132009.dat
  A4200__-MM_-L-04_C4  d:\pwsa\ExtUA-Rain_07132009.dat
  A4200__-MM_-L-04_C5  d:\pwsa\ExtUA-Rain_07132009.dat
  A4200__-MM_-L-04_C6  d:\pwsa\ExtUA-Rain_07132009.dat
  A4200__-MM_-L-04_C7  d:\pwsa\ExtUA-Rain_07132009.dat
  A4200__-MM_-L-04_C8  d:\pwsa\ExtUA-Rain_07132009.dat
  A4200__-MM_-L-04_C9  d:\pwsa\ExtUA-Rain_07132009.dat
  A4200__-MM_-L-04_OS1 d:\pwsa\ExtUA-Rain_07132009.dat
  A4200__-MM_-L-06_C1  d:\pwsa\ExtUA-Rain_07132009.dat
  A4200__-MM_-L-07_C1  d:\pwsa\ExtUA-Rain_07132009.dat
  A4200__-MM_-L-07_C10 d:\pwsa\ExtUA-Rain_07132009.dat
  A4200__-MM_-L-07_C11 d:\pwsa\ExtUA-Rain_07132009.dat
  A4200__-MM_-L-07_C12 d:\pwsa\ExtUA-Rain_07132009.dat
  A4200__-MM_-L-07_C13 d:\pwsa\ExtUA-Rain_07132009.dat
  A4200__-MM_-L-07_C14 d:\pwsa\ExtUA-Rain_07132009.dat
  A4200__-MM_-L-07_C15 d:\pwsa\ExtUA-Rain_07132009.dat
  A4200__-MM_-L-07_C16 d:\pwsa\ExtUA-Rain_07132009.dat
  A4200__-MM_-L-07_C17 d:\pwsa\ExtUA-Rain_07132009.dat
  A4200__-MM_-L-07_C2  d:\pwsa\ExtUA-Rain_07132009.dat
  A4200__-MM_-L-07_C3  d:\pwsa\ExtUA-Rain_07132009.dat
  A4200__-MM_-L-07_C4  d:\pwsa\ExtUA-Rain_07132009.dat
  A4200__-MM_-L-07_C5  d:\pwsa\ExtUA-Rain_07132009.dat
  A4200__-MM_-L-07_C6  d:\pwsa\ExtUA-Rain_07132009.dat
  A4200__-MM_-L-07_C7  d:\pwsa\ExtUA-Rain_07132009.dat
  A4200__-MM_-L-07_C8  d:\pwsa\ExtUA-Rain_07132009.dat
  A4200__-MM_-L-07_C9  d:\pwsa\ExtUA-Rain_07132009.dat
  A4200__-POC-L-01_C1  d:\pwsa\ExtUA-Rain_07132009.dat
  A4200__-POC-L-01_C2  d:\pwsa\ExtUA-Rain_07132009.dat
  A4200__-POC-L-01_C3  d:\pwsa\ExtUA-Rain_07132009.dat
  A4200__-POC-L-01_C4  d:\pwsa\ExtUA-Rain_07132009.dat
  A4200__-POC-L-01_C5  d:\pwsa\ExtUA-Rain_07132009.dat
  A4200__-POC-L-01_ST1 d:\pwsa\ExtUA-Rain_07132009.dat
  A4200__-POC-L-02_C1  d:\pwsa\ExtUA-Rain_07132009.dat
  A4200__-POC-L-02_C2  d:\pwsa\ExtUA-Rain_07132009.dat
  A4200__-POC-L-02_C3  d:\pwsa\ExtUA-Rain_07132009.dat
  A4200__-POC-L-02_C4  d:\pwsa\ExtUA-Rain_07132009.dat
  A4200__-POC-L-02_C5  d:\pwsa\ExtUA-Rain_07132009.dat
  A4200__-POC-L-02_C6  d:\pwsa\ExtUA-Rain_07132009.dat
  A4200__-POC-L-02_C7  d:\pwsa\ExtUA-Rain_07132009.dat
  A4200__-POC-L-02_C8  d:\pwsa\ExtUA-Rain_07132009.dat
  HR001_C1             d:\pwsa\ExtUA-Rain_07132009.dat
  HR001_C2             d:\pwsa\ExtUA-Rain_07132009.dat
  HR001_C3             d:\pwsa\ExtUA-Rain_07132009.dat
  HR002_C1             d:\pwsa\ExtUA-Rain_07132009.dat
  HRZOO_C1             d:\pwsa\ExtUA-Rain_07132009.dat
  INT_A35_C1           d:\pwsa\ExtUA-Rain_07132009.dat
  INT_A36_C1           d:\pwsa\ExtUA-Rain_07132009.dat
  INT_A37A_C1          d:\pwsa\ExtUA-Rain_07132009.dat
  INT_A37_C1           d:\pwsa\ExtUA-Rain_07132009.dat
  INT_A38_C1           d:\pwsa\ExtUA-Rain_07132009.dat
  INT_A40_C1           d:\pwsa\ExtUA-Rain_07132009.dat
  INT_A42_C1           d:\pwsa\ExtUA-Rain_07132009.dat
  NA                   d:\pwsa\ExtUA-Rain_07132009.dat
  STORM_ST1            d:\pwsa\ExtUA-Rain_07132009.dat
  STORM_ST2            d:\pwsa\ExtUA-Rain_07132009.dat
  STORM_ST4            d:\pwsa\ExtUA-Rain_07132009.dat
  STORM_ST5            d:\pwsa\ExtUA-Rain_07132009.dat
  
  
  ********************
  Subcatchment Summary
  ********************
  Name                       Area     Width   %Imperv    %Slope Rain Gage            Outlet              
  -----------------------------------------------------------------------------------------------------------
  A35001_C1_Ihgh             9.96    147.93    100.00   15.0700 A35001_C1            MH120P002           
  A35001_C1_Ilow             0.00      0.00    100.00    0.0000 A35001_C1            MH120P002           
  A35001_C1_Imed             0.21      3.12    100.00    4.2800 A35001_C1            MH120P002           
  A35001_C1_Izero            2.49     36.98    100.00    0.0000 A35001_C1            MH120P002           
  A35001_C1_Phgh            37.44    556.08      0.00   30.0800 A35001_C1            MH120P002           
  A35001_C1_Plow             0.00      0.00      0.00    0.0000 A35001_C1            MH120P002           
  A35001_C1_Pmed             0.51      7.57      0.00    4.2900 A35001_C1            MH120P002           
  A35001_C1_Pzero            4.29     63.72      0.00    0.0000 A35001_C1            MH120P002           
  A37002_C1_Ihgh             0.84     75.22    100.00   18.5400 A37002_C1            MH120H006           
  A37002_C1_Ilow             0.00      0.00    100.00    0.0000 A37002_C1            MH120H006           
  A37002_C1_Imed             0.33     29.55    100.00    3.9900 A37002_C1            MH120H006           
  A37002_C1_Izero            0.26     23.28    100.00    0.1100 A37002_C1            MH120H006           
  A37002_C1_Phgh             8.39    751.35      0.00   44.0400 A37002_C1            MH120H006           
  A37002_C1_Plow             0.00      0.00      0.00    0.0000 A37002_C1            MH120H006           
  A37002_C1_Pmed             0.10      8.96      0.00    4.3600 A37002_C1            MH120H006           
  A37002_C1_Pzero            0.14     12.54      0.00    0.0000 A37002_C1            MH120H006           
  A41IN_C1_Ihgh              3.88    118.82    100.00   16.0100 A41IN_C1             JCT121G001          
  A41IN_C1_Ilow              0.00      0.00    100.00    0.0000 A41IN_C1             JCT121G001          
  A41IN_C1_Imed              1.57     48.08    100.00    3.2800 A41IN_C1             JCT121G001          
  A41IN_C1_Izero             3.61    110.55    100.00    0.0000 A41IN_C1             JCT121G001          
  A41IN_C1_Phgh              5.22    159.86      0.00   22.8100 A41IN_C1             JCT121G001          
  A41IN_C1_Plow              0.00      0.00      0.00    0.0000 A41IN_C1             JCT121G001          
  A41IN_C1_Pmed              1.87     57.27      0.00    3.0800 A41IN_C1             JCT121G001          
  A41IN_C1_Pzero             3.65    111.78      0.00    0.0000 A41IN_C1             JCT121G001          
  A4200__-IM_-L-05_C10_Ihgh       0.67     41.20    100.00   11.9500 A4200__-IM_-L-05_C10 MH175F003           
  A4200__-IM_-L-05_C10_Ilow       0.00      0.00    100.00    0.0000 A4200__-IM_-L-05_C10 MH175F003           
  A4200__-IM_-L-05_C10_Imed       1.82    111.92    100.00    3.2200 A4200__-IM_-L-05_C10 MH175F003           
  A4200__-IM_-L-05_C10_Izero       2.64    162.34    100.00    0.0800 A4200__-IM_-L-05_C10 MH175F003           
  A4200__-IM_-L-05_C10_Phgh       1.96    120.53      0.00   21.0500 A4200__-IM_-L-05_C10 MH175F003           
  A4200__-IM_-L-05_C10_Plow       0.00      0.00      0.00    0.0000 A4200__-IM_-L-05_C10 MH175F003           
  A4200__-IM_-L-05_C10_Pmed       1.57     96.54      0.00    3.9000 A4200__-IM_-L-05_C10 MH175F003           
  A4200__-IM_-L-05_C10_Pzero       1.68    103.31      0.00    0.0000 A4200__-IM_-L-05_C10 MH175F003           
  A4200__-IM_-L-05_C11_Ihgh       0.53     36.20    100.00    7.2100 A4200__-IM_-L-05_C11 MH125M008           
  A4200__-IM_-L-05_C11_Ilow       0.00      0.00    100.00    0.0000 A4200__-IM_-L-05_C11 MH125M008           
  A4200__-IM_-L-05_C11_Imed       0.56     38.25    100.00    4.0600 A4200__-IM_-L-05_C11 MH125M008           
  A4200__-IM_-L-05_C11_Izero       0.61     41.67    100.00    0.0000 A4200__-IM_-L-05_C11 MH125M008           
  A4200__-IM_-L-05_C11_Phgh       0.54     36.88      0.00    7.2500 A4200__-IM_-L-05_C11 MH125M008           
  A4200__-IM_-L-05_C11_Plow       0.00      0.00      0.00    0.0000 A4200__-IM_-L-05_C11 MH125M008           
  A4200__-IM_-L-05_C11_Pmed       0.22     15.03      0.00    4.4000 A4200__-IM_-L-05_C11 MH125M008           
  A4200__-IM_-L-05_C11_Pzero       0.49     33.47      0.00    0.0000 A4200__-IM_-L-05_C11 MH125M008           
  A4200__-IM_-L-05_C12_Ihgh       0.90     68.65    100.00   11.0000 A4200__-IM_-L-05_C12 MH125M011           
  A4200__-IM_-L-05_C12_Ilow       0.00      0.00    100.00    0.0000 A4200__-IM_-L-05_C12 MH125M011           
  A4200__-IM_-L-05_C12_Imed       0.40     30.51    100.00    4.2100 A4200__-IM_-L-05_C12 MH125M011           
  A4200__-IM_-L-05_C12_Izero       1.05     80.09    100.00    0.0000 A4200__-IM_-L-05_C12 MH125M011           
  A4200__-IM_-L-05_C12_Phgh       1.04     79.33      0.00   13.3000 A4200__-IM_-L-05_C12 MH125M011           
  A4200__-IM_-L-05_C12_Plow       0.00      0.00      0.00    0.0000 A4200__-IM_-L-05_C12 MH125M011           
  A4200__-IM_-L-05_C12_Pmed       0.33     25.17      0.00    4.2200 A4200__-IM_-L-05_C12 MH125M011           
  A4200__-IM_-L-05_C12_Pzero       1.36    103.74      0.00    0.0000 A4200__-IM_-L-05_C12 MH125M011           
  A4200__-IM_-L-05_C1_Ihgh       2.85    113.89    100.00    8.4900 A4200__-IM_-L-05_C1  MH125H012           
  A4200__-IM_-L-05_C1_Ilow       0.00      0.00    100.00    0.0000 A4200__-IM_-L-05_C1  MH125H012           
  A4200__-IM_-L-05_C1_Imed       2.08     83.12    100.00    4.1700 A4200__-IM_-L-05_C1  MH125H012           
  A4200__-IM_-L-05_C1_Izero       4.17    166.63    100.00    0.0300 A4200__-IM_-L-05_C1  MH125H012           
  A4200__-IM_-L-05_C1_Phgh       8.39    335.27      0.00   17.1600 A4200__-IM_-L-05_C1  MH125H012           
  A4200__-IM_-L-05_C1_Plow       0.00      0.00      0.00    0.0000 A4200__-IM_-L-05_C1  MH125H012           
  A4200__-IM_-L-05_C1_Pmed       2.30     91.91      0.00    4.1100 A4200__-IM_-L-05_C1  MH125H012           
  A4200__-IM_-L-05_C1_Pzero       5.48    218.98      0.00    0.0000 A4200__-IM_-L-05_C1  MH125H012           
  A4200__-IM_-L-05_C2_Ihgh       2.61     67.49    100.00   10.0200 A4200__-IM_-L-05_C2  MH125H011           
  A4200__-IM_-L-05_C2_Ilow       0.00      0.00    100.00    0.0000 A4200__-IM_-L-05_C2  MH125H011           
  A4200__-IM_-L-05_C2_Imed       1.92     49.65    100.00    3.6400 A4200__-IM_-L-05_C2  MH125H011           
  A4200__-IM_-L-05_C2_Izero       5.11    132.13    100.00    0.0100 A4200__-IM_-L-05_C2  MH125H011           
  A4200__-IM_-L-05_C2_Phgh       4.81    124.37      0.00   12.2500 A4200__-IM_-L-05_C2  MH125H011           
  A4200__-IM_-L-05_C2_Plow       0.00      0.00      0.00    0.0000 A4200__-IM_-L-05_C2  MH125H011           
  A4200__-IM_-L-05_C2_Pmed       2.37     61.28      0.00    3.6100 A4200__-IM_-L-05_C2  MH125H011           
  A4200__-IM_-L-05_C2_Pzero       6.55    169.37      0.00    0.0000 A4200__-IM_-L-05_C2  MH125H011           
  A4200__-IM_-L-05_C3_Ihgh       9.06    230.40    100.00   11.0200 A4200__-IM_-L-05_C3  MH125L002           
  A4200__-IM_-L-05_C3_Ilow       0.00      0.00    100.00    0.0000 A4200__-IM_-L-05_C3  MH125L002           
  A4200__-IM_-L-05_C3_Imed       5.40    137.33    100.00    3.6200 A4200__-IM_-L-05_C3  MH125L002           
  A4200__-IM_-L-05_C3_Izero      10.59    269.31    100.00    0.0400 A4200__-IM_-L-05_C3  MH125L002           
  A4200__-IM_-L-05_C3_Phgh      14.09    358.32      0.00   11.9200 A4200__-IM_-L-05_C3  MH125L002           
  A4200__-IM_-L-05_C3_Plow       0.00      0.00      0.00    0.0000 A4200__-IM_-L-05_C3  MH125L002           
  A4200__-IM_-L-05_C3_Pmed       8.09    205.74      0.00    3.4600 A4200__-IM_-L-05_C3  MH125L002           
  A4200__-IM_-L-05_C3_Pzero      11.47    291.69      0.00    0.0000 A4200__-IM_-L-05_C3  MH125L002           
  A4200__-IM_-L-05_C4_Ihgh       0.52     46.92    100.00    6.8900 A4200__-IM_-L-05_C4  MH125H003           
  A4200__-IM_-L-05_C4_Ilow       0.00      0.00    100.00    0.0000 A4200__-IM_-L-05_C4  MH125H003           
  A4200__-IM_-L-05_C4_Imed       0.17     15.34    100.00    4.3100 A4200__-IM_-L-05_C4  MH125H003           
  A4200__-IM_-L-05_C4_Izero       0.60     54.14    100.00    0.0000 A4200__-IM_-L-05_C4  MH125H003           
  A4200__-IM_-L-05_C4_Phgh       0.65     58.66      0.00   10.1000 A4200__-IM_-L-05_C4  MH125H003           
  A4200__-IM_-L-05_C4_Plow       0.00      0.00      0.00    0.0000 A4200__-IM_-L-05_C4  MH125H003           
  A4200__-IM_-L-05_C4_Pmed       0.23     20.75      0.00    4.3300 A4200__-IM_-L-05_C4  MH125H003           
  A4200__-IM_-L-05_C4_Pzero       1.01     91.14      0.00    0.0000 A4200__-IM_-L-05_C4  MH125H003           
  A4200__-IM_-L-05_C5_Ihgh       4.54     66.29    100.00    8.6000 A4200__-IM_-L-05_C5  MH125M004           
  A4200__-IM_-L-05_C5_Ilow       0.00      0.00    100.00    0.0000 A4200__-IM_-L-05_C5  MH125M004           
  A4200__-IM_-L-05_C5_Imed       3.41     49.79    100.00    3.7300 A4200__-IM_-L-05_C5  MH125M004           
  A4200__-IM_-L-05_C5_Izero       7.13    104.11    100.00    0.0000 A4200__-IM_-L-05_C5  MH125M004           
  A4200__-IM_-L-05_C5_Phgh      11.62    169.68      0.00   10.7200 A4200__-IM_-L-05_C5  MH125M004           
  A4200__-IM_-L-05_C5_Plow       0.00      0.00      0.00    0.0000 A4200__-IM_-L-05_C5  MH125M004           
  A4200__-IM_-L-05_C5_Pmed      11.51    168.07      0.00    3.1200 A4200__-IM_-L-05_C5  MH125M004           
  A4200__-IM_-L-05_C5_Pzero      15.69    229.11      0.00    0.0000 A4200__-IM_-L-05_C5  MH125M004           
  A4200__-IM_-L-05_C6_Ihgh       4.85    122.68    100.00    9.3500 A4200__-IM_-L-05_C6  MH125S001           
  A4200__-IM_-L-05_C6_Ilow       0.00      0.00    100.00    0.0000 A4200__-IM_-L-05_C6  MH125S001           
  A4200__-IM_-L-05_C6_Imed       3.59     90.81    100.00    3.6800 A4200__-IM_-L-05_C6  MH125S001           
  A4200__-IM_-L-05_C6_Izero       5.14    130.01    100.00    0.0100 A4200__-IM_-L-05_C6  MH125S001           
  A4200__-IM_-L-05_C6_Phgh       8.22    207.92      0.00   10.9000 A4200__-IM_-L-05_C6  MH125S001           
  A4200__-IM_-L-05_C6_Plow       0.00      0.00      0.00    0.0000 A4200__-IM_-L-05_C6  MH125S001           
  A4200__-IM_-L-05_C6_Pmed       5.13    129.76      0.00    3.4500 A4200__-IM_-L-05_C6  MH125S001           
  A4200__-IM_-L-05_C6_Pzero       7.11    179.84      0.00    0.0000 A4200__-IM_-L-05_C6  MH125S001           
  A4200__-IM_-L-05_C7_Ihgh       1.10     37.24    100.00   10.4900 A4200__-IM_-L-05_C7  JCT174N003          
  A4200__-IM_-L-05_C7_Ilow       0.00      0.00    100.00    0.0000 A4200__-IM_-L-05_C7  JCT174N003          
  A4200__-IM_-L-05_C7_Imed       5.24    177.39    100.00    3.0000 A4200__-IM_-L-05_C7  JCT174N003          
  A4200__-IM_-L-05_C7_Izero       7.28    246.45    100.00    0.0100 A4200__-IM_-L-05_C7  JCT174N003          
  A4200__-IM_-L-05_C7_Phgh       3.19    107.99      0.00   20.5400 A4200__-IM_-L-05_C7  JCT174N003          
  A4200__-IM_-L-05_C7_Plow       0.00      0.00      0.00    0.0000 A4200__-IM_-L-05_C7  JCT174N003          
  A4200__-IM_-L-05_C7_Pmed       4.68    158.43      0.00    3.2900 A4200__-IM_-L-05_C7  JCT174N003          
  A4200__-IM_-L-05_C7_Pzero       8.52    288.43      0.00    0.0000 A4200__-IM_-L-05_C7  JCT174N003          
  A4200__-IM_-L-05_C8_Ihgh       6.64    181.50    100.00    8.1000 A4200__-IM_-L-05_C8  MH175A004           
  A4200__-IM_-L-05_C8_Ilow       0.00      0.00    100.00    0.0000 A4200__-IM_-L-05_C8  MH175A004           
  A4200__-IM_-L-05_C8_Imed       4.77    130.39    100.00    4.0000 A4200__-IM_-L-05_C8  MH175A004           
  A4200__-IM_-L-05_C8_Izero      12.06    329.65    100.00    0.0900 A4200__-IM_-L-05_C8  MH175A004           
  A4200__-IM_-L-05_C8_Phgh       8.59    234.80      0.00   12.3200 A4200__-IM_-L-05_C8  MH175A004           
  A4200__-IM_-L-05_C8_Plow       0.00      0.00      0.00    0.0000 A4200__-IM_-L-05_C8  MH175A004           
  A4200__-IM_-L-05_C8_Pmed       3.30     90.20      0.00    4.0400 A4200__-IM_-L-05_C8  MH175A004           
  A4200__-IM_-L-05_C8_Pzero       6.37    174.12      0.00    0.0000 A4200__-IM_-L-05_C8  MH175A004           
  A4200__-IM_-L-05_C9_Ihgh      15.10    168.50    100.00    9.9800 A4200__-IM_-L-05_C9  MH175F006           
  A4200__-IM_-L-05_C9_Ilow       0.00      0.00    100.00    0.0000 A4200__-IM_-L-05_C9  MH175F006           
  A4200__-IM_-L-05_C9_Imed      10.92    121.86    100.00    3.5400 A4200__-IM_-L-05_C9  MH175F006           
  A4200__-IM_-L-05_C9_Izero      18.89    210.79    100.00    0.0500 A4200__-IM_-L-05_C9  MH175F006           
  A4200__-IM_-L-05_C9_Phgh      26.59    296.72      0.00   12.6000 A4200__-IM_-L-05_C9  MH175F006           
  A4200__-IM_-L-05_C9_Plow       0.00      0.00      0.00    0.0000 A4200__-IM_-L-05_C9  MH175F006           
  A4200__-IM_-L-05_C9_Pmed       9.48    105.79      0.00    3.6200 A4200__-IM_-L-05_C9  MH175F006           
  A4200__-IM_-L-05_C9_Pzero      14.96    166.94      0.00    0.0000 A4200__-IM_-L-05_C9  MH175F006           
  A4200__-MM_-L-03_C1_Ihgh       0.87     54.06    100.00    9.2000 A4200__-MM_-L-03_C1  MH124K012           
  A4200__-MM_-L-03_C1_Ilow       0.00      0.00    100.00    0.0000 A4200__-MM_-L-03_C1  MH124K012           
  A4200__-MM_-L-03_C1_Imed       1.10     68.35    100.00    3.1600 A4200__-MM_-L-03_C1  MH124K012           
  A4200__-MM_-L-03_C1_Izero       1.51     93.82    100.00    0.0000 A4200__-MM_-L-03_C1  MH124K012           
  A4200__-MM_-L-03_C1_Phgh       2.02    125.51      0.00    9.7600 A4200__-MM_-L-03_C1  MH124K012           
  A4200__-MM_-L-03_C1_Plow       0.00      0.00      0.00    0.0000 A4200__-MM_-L-03_C1  MH124K012           
  A4200__-MM_-L-03_C1_Pmed       2.80    173.97      0.00    3.3000 A4200__-MM_-L-03_C1  MH124K012           
  A4200__-MM_-L-03_C1_Pzero       2.65    164.65      0.00    0.0000 A4200__-MM_-L-03_C1  MH124K012           
  A4200__-MM_-L-03_C2_Ihgh       1.10     36.54    100.00   17.4000 A4200__-MM_-L-03_C2  MH124L018           
  A4200__-MM_-L-03_C2_Ilow       0.00      0.00    100.00    0.0000 A4200__-MM_-L-03_C2  MH124L018           
  A4200__-MM_-L-03_C2_Imed       0.22      7.31    100.00    3.7300 A4200__-MM_-L-03_C2  MH124L018           
  A4200__-MM_-L-03_C2_Izero       1.02     33.88    100.00    0.0600 A4200__-MM_-L-03_C2  MH124L018           
  A4200__-MM_-L-03_C2_Phgh       5.95    197.63      0.00   50.3500 A4200__-MM_-L-03_C2  MH124L018           
  A4200__-MM_-L-03_C2_Plow       0.00      0.00      0.00    0.0000 A4200__-MM_-L-03_C2  MH124L018           
  A4200__-MM_-L-03_C2_Pmed       0.14      4.65      0.00    3.4900 A4200__-MM_-L-03_C2  MH124L018           
  A4200__-MM_-L-03_C2_Pzero       0.42     13.95      0.00    0.0000 A4200__-MM_-L-03_C2  MH124L018           
  A4200__-MM_-L-04_C10_Ihgh      18.60    304.37    100.00   16.4800 A4200__-MM_-L-04_C10 MH173B012           
  A4200__-MM_-L-04_C10_Ilow       0.00      0.00    100.00    0.0000 A4200__-MM_-L-04_C10 MH173B012           
  A4200__-MM_-L-04_C10_Imed       0.84     13.75    100.00    3.9400 A4200__-MM_-L-04_C10 MH173B012           
  A4200__-MM_-L-04_C10_Izero       3.95     64.64    100.00    0.0000 A4200__-MM_-L-04_C10 MH173B012           
  A4200__-MM_-L-04_C10_Phgh      54.59    893.32      0.00   22.8300 A4200__-MM_-L-04_C10 MH173B012           
  A4200__-MM_-L-04_C10_Plow       0.00      0.00      0.00    0.0000 A4200__-MM_-L-04_C10 MH173B012           
  A4200__-MM_-L-04_C10_Pmed       1.13     18.49      0.00    3.6800 A4200__-MM_-L-04_C10 MH173B012           
  A4200__-MM_-L-04_C10_Pzero       8.04    131.57      0.00    0.0000 A4200__-MM_-L-04_C10 MH173B012           
  A4200__-MM_-L-04_C11_Ihgh      10.03    254.08    100.00   12.8000 A4200__-MM_-L-04_C11 MH173E004           
  A4200__-MM_-L-04_C11_Ilow       0.00      0.00    100.00    0.0000 A4200__-MM_-L-04_C11 MH173E004           
  A4200__-MM_-L-04_C11_Imed       2.47     62.57    100.00    4.2100 A4200__-MM_-L-04_C11 MH173E004           
  A4200__-MM_-L-04_C11_Izero       2.63     66.62    100.00    0.0000 A4200__-MM_-L-04_C11 MH173E004           
  A4200__-MM_-L-04_C11_Phgh      22.09    559.59      0.00   16.0300 A4200__-MM_-L-04_C11 MH173E004           
  A4200__-MM_-L-04_C11_Plow       0.00      0.00      0.00    0.0000 A4200__-MM_-L-04_C11 MH173E004           
  A4200__-MM_-L-04_C11_Pmed       2.40     60.80      0.00    4.0300 A4200__-MM_-L-04_C11 MH173E004           
  A4200__-MM_-L-04_C11_Pzero       5.26    133.25      0.00    0.0000 A4200__-MM_-L-04_C11 MH173E004           
  A4200__-MM_-L-04_C12_Ihgh       4.86    160.15    100.00    9.6000 A4200__-MM_-L-04_C12 MH174A007           
  A4200__-MM_-L-04_C12_Ilow       0.00      0.00    100.00    0.0000 A4200__-MM_-L-04_C12 MH174A007           
  A4200__-MM_-L-04_C12_Imed       1.59     52.40    100.00    3.5200 A4200__-MM_-L-04_C12 MH174A007           
  A4200__-MM_-L-04_C12_Izero       2.67     87.99    100.00    0.0000 A4200__-MM_-L-04_C12 MH174A007           
  A4200__-MM_-L-04_C12_Phgh       7.72    254.40      0.00   13.3200 A4200__-MM_-L-04_C12 MH174A007           
  A4200__-MM_-L-04_C12_Plow       0.00      0.00      0.00    0.0000 A4200__-MM_-L-04_C12 MH174A007           
  A4200__-MM_-L-04_C12_Pmed       1.55     51.08      0.00    3.9400 A4200__-MM_-L-04_C12 MH174A007           
  A4200__-MM_-L-04_C12_Pzero       4.25    140.05      0.00    0.0000 A4200__-MM_-L-04_C12 MH174A007           
  A4200__-MM_-L-04_C13_Ihgh       9.69    187.67    100.00   12.9700 A4200__-MM_-L-04_C13 MH174A015           
  A4200__-MM_-L-04_C13_Ilow       0.00      0.00    100.00    0.0000 A4200__-MM_-L-04_C13 MH174A015           
  A4200__-MM_-L-04_C13_Imed       2.06     39.90    100.00    4.0400 A4200__-MM_-L-04_C13 MH174A015           
  A4200__-MM_-L-04_C13_Izero       4.34     84.06    100.00    0.0000 A4200__-MM_-L-04_C13 MH174A015           
  A4200__-MM_-L-04_C13_Phgh      22.14    428.80      0.00   24.4700 A4200__-MM_-L-04_C13 MH174A015           
  A4200__-MM_-L-04_C13_Plow       0.00      0.00      0.00    0.0000 A4200__-MM_-L-04_C13 MH174A015           
  A4200__-MM_-L-04_C13_Pmed       2.32     44.93      0.00    4.0700 A4200__-MM_-L-04_C13 MH174A015           
  A4200__-MM_-L-04_C13_Pzero       5.66    109.62      0.00    0.0000 A4200__-MM_-L-04_C13 MH174A015           
  A4200__-MM_-L-04_C14_Ihgh       5.49    147.77    100.00   16.8700 A4200__-MM_-L-04_C14 MH174B006           
  A4200__-MM_-L-04_C14_Ilow       0.00      0.00    100.00    0.0000 A4200__-MM_-L-04_C14 MH174B006           
  A4200__-MM_-L-04_C14_Imed       0.03      0.81    100.00    4.2000 A4200__-MM_-L-04_C14 MH174B006           
  A4200__-MM_-L-04_C14_Izero       0.44     11.84    100.00    0.0000 A4200__-MM_-L-04_C14 MH174B006           
  A4200__-MM_-L-04_C14_Phgh      16.63    447.62      0.00   33.8900 A4200__-MM_-L-04_C14 MH174B006           
  A4200__-MM_-L-04_C14_Plow       0.00      0.00      0.00    0.0000 A4200__-MM_-L-04_C14 MH174B006           
  A4200__-MM_-L-04_C14_Pmed       0.04      1.08      0.00    4.0400 A4200__-MM_-L-04_C14 MH174B006           
  A4200__-MM_-L-04_C14_Pzero       0.69     18.57      0.00    0.0000 A4200__-MM_-L-04_C14 MH174B006           
  A4200__-MM_-L-04_C15_Ihgh       8.26    154.84    100.00   10.1900 A4200__-MM_-L-04_C15 JCT125C001          
  A4200__-MM_-L-04_C15_Ilow       0.00      0.00    100.00    0.0000 A4200__-MM_-L-04_C15 JCT125C001          
  A4200__-MM_-L-04_C15_Imed       5.44    101.98    100.00    3.6200 A4200__-MM_-L-04_C15 JCT125C001          
  A4200__-MM_-L-04_C15_Izero       8.05    150.91    100.00    0.0100 A4200__-MM_-L-04_C15 JCT125C001          
  A4200__-MM_-L-04_C15_Phgh      11.92    223.46      0.00   16.5400 A4200__-MM_-L-04_C15 JCT125C001          
  A4200__-MM_-L-04_C15_Plow       0.00      0.00      0.00    0.0000 A4200__-MM_-L-04_C15 JCT125C001          
  A4200__-MM_-L-04_C15_Pmed       5.33     99.92      0.00    3.6800 A4200__-MM_-L-04_C15 JCT125C001          
  A4200__-MM_-L-04_C15_Pzero       7.86    147.35      0.00    0.0000 A4200__-MM_-L-04_C15 JCT125C001          
  A4200__-MM_-L-04_C16_Ihgh       6.12    162.34    100.00    9.7200 A4200__-MM_-L-04_C16 MH125F005           
  A4200__-MM_-L-04_C16_Ilow       0.00      0.00    100.00    0.0000 A4200__-MM_-L-04_C16 MH125F005           
  A4200__-MM_-L-04_C16_Imed      13.20    350.15    100.00    2.9900 A4200__-MM_-L-04_C16 MH125F005           
  A4200__-MM_-L-04_C16_Izero      15.22    403.73    100.00    0.0500 A4200__-MM_-L-04_C16 MH125F005           
  A4200__-MM_-L-04_C16_Phgh       2.09     55.44      0.00   14.8600 A4200__-MM_-L-04_C16 MH125F005           
  A4200__-MM_-L-04_C16_Plow       0.00      0.00      0.00    0.0000 A4200__-MM_-L-04_C16 MH125F005           
  A4200__-MM_-L-04_C16_Pmed       2.08     55.18      0.00    3.0000 A4200__-MM_-L-04_C16 MH125F005           
  A4200__-MM_-L-04_C16_Pzero       3.79    100.54      0.00    0.0000 A4200__-MM_-L-04_C16 MH125F005           
  A4200__-MM_-L-04_C17_Ihgh      15.57    114.26    100.00   10.9300 A4200__-MM_-L-04_C17 MH125G011           
  A4200__-MM_-L-04_C17_Ilow       0.00      0.00    100.00    0.0000 A4200__-MM_-L-04_C17 MH125G011           
  A4200__-MM_-L-04_C17_Imed       9.80     71.92    100.00    3.4400 A4200__-MM_-L-04_C17 MH125G011           
  A4200__-MM_-L-04_C17_Izero      12.93     94.89    100.00    0.0100 A4200__-MM_-L-04_C17 MH125G011           
  A4200__-MM_-L-04_C17_Phgh      27.63    202.76      0.00   17.8000 A4200__-MM_-L-04_C17 MH125G011           
  A4200__-MM_-L-04_C17_Plow       0.00      0.00      0.00    0.0000 A4200__-MM_-L-04_C17 MH125G011           
  A4200__-MM_-L-04_C17_Pmed       9.82     72.06      0.00    3.5000 A4200__-MM_-L-04_C17 MH125G011           
  A4200__-MM_-L-04_C17_Pzero      18.66    136.94      0.00    0.0000 A4200__-MM_-L-04_C17 MH125G011           
  A4200__-MM_-L-04_C1_Ihgh       0.79     24.97    100.00   11.8300 A4200__-MM_-L-04_C1  JCT124K008          
  A4200__-MM_-L-04_C1_Ilow       0.00      0.00    100.00    0.0000 A4200__-MM_-L-04_C1  JCT124K008          
  A4200__-MM_-L-04_C1_Imed       1.07     33.82    100.00    3.8600 A4200__-MM_-L-04_C1  JCT124K008          
  A4200__-MM_-L-04_C1_Izero       2.32     73.34    100.00    0.0500 A4200__-MM_-L-04_C1  JCT124K008          
  A4200__-MM_-L-04_C1_Phgh       7.31    231.07      0.00   45.5900 A4200__-MM_-L-04_C1  JCT124K008          
  A4200__-MM_-L-04_C1_Plow       0.00      0.00      0.00    0.0000 A4200__-MM_-L-04_C1  JCT124K008          
  A4200__-MM_-L-04_C1_Pmed       0.96     30.35      0.00    3.8100 A4200__-MM_-L-04_C1  JCT124K008          
  A4200__-MM_-L-04_C1_Pzero       1.63     51.53      0.00    0.0000 A4200__-MM_-L-04_C1  JCT124K008          
  A4200__-MM_-L-04_C2_Ihgh       7.25    205.94    100.00   12.8600 A4200__-MM_-L-04_C2  MH124R017           
  A4200__-MM_-L-04_C2_Ilow       0.00      0.00    100.00    0.0000 A4200__-MM_-L-04_C2  MH124R017           
  A4200__-MM_-L-04_C2_Imed       1.52     43.18    100.00    3.9100 A4200__-MM_-L-04_C2  MH124R017           
  A4200__-MM_-L-04_C2_Izero       1.88     53.40    100.00    0.0000 A4200__-MM_-L-04_C2  MH124R017           
  A4200__-MM_-L-04_C2_Phgh      14.03    398.52      0.00   18.6700 A4200__-MM_-L-04_C2  MH124R017           
  A4200__-MM_-L-04_C2_Plow       0.00      0.00      0.00    0.0000 A4200__-MM_-L-04_C2  MH124R017           
  A4200__-MM_-L-04_C2_Pmed       1.88     53.40      0.00    3.9400 A4200__-MM_-L-04_C2  MH124R017           
  A4200__-MM_-L-04_C2_Pzero       3.36     95.44      0.00    0.0000 A4200__-MM_-L-04_C2  MH124R017           
  A4200__-MM_-L-04_C3_Ihgh       1.74     99.20    100.00    9.8500 A4200__-MM_-L-04_C3  JCT124S002          
  A4200__-MM_-L-04_C3_Ilow       0.00      0.00    100.00    0.0000 A4200__-MM_-L-04_C3  JCT124S002          
  A4200__-MM_-L-04_C3_Imed       1.24     70.69    100.00    3.4900 A4200__-MM_-L-04_C3  JCT124S002          
  A4200__-MM_-L-04_C3_Izero       2.02    115.16    100.00    0.0200 A4200__-MM_-L-04_C3  JCT124S002          
  A4200__-MM_-L-04_C3_Phgh       2.93    167.04      0.00   11.4900 A4200__-MM_-L-04_C3  JCT124S002          
  A4200__-MM_-L-04_C3_Plow       0.00      0.00      0.00    0.0000 A4200__-MM_-L-04_C3  JCT124S002          
  A4200__-MM_-L-04_C3_Pmed       2.05    116.87      0.00    3.3700 A4200__-MM_-L-04_C3  JCT124S002          
  A4200__-MM_-L-04_C3_Pzero       2.72    155.06      0.00    0.0000 A4200__-MM_-L-04_C3  JCT124S002          
  A4200__-MM_-L-04_C4_Ihgh       6.13    191.81    100.00   15.5400 A4200__-MM_-L-04_C4  MH124S012           
  A4200__-MM_-L-04_C4_Ilow       0.00      0.00    100.00    0.0000 A4200__-MM_-L-04_C4  MH124S012           
  A4200__-MM_-L-04_C4_Imed       1.06     33.17    100.00    3.8400 A4200__-MM_-L-04_C4  MH124S012           
  A4200__-MM_-L-04_C4_Izero       2.18     68.21    100.00    0.0100 A4200__-MM_-L-04_C4  MH124S012           
  A4200__-MM_-L-04_C4_Phgh      20.37    637.38      0.00   28.3900 A4200__-MM_-L-04_C4  MH124S012           
  A4200__-MM_-L-04_C4_Plow       0.00      0.00      0.00    0.0000 A4200__-MM_-L-04_C4  MH124S012           
  A4200__-MM_-L-04_C4_Pmed       1.69     52.88      0.00    4.0500 A4200__-MM_-L-04_C4  MH124S012           
  A4200__-MM_-L-04_C4_Pzero       3.20    100.13      0.00    0.0000 A4200__-MM_-L-04_C4  MH124S012           
  A4200__-MM_-L-04_C5_Ihgh       6.21    252.01    100.00   12.9800 A4200__-MM_-L-04_C5  MH124S017           
  A4200__-MM_-L-04_C5_Ilow       0.00      0.00    100.00    0.0000 A4200__-MM_-L-04_C5  MH124S017           
  A4200__-MM_-L-04_C5_Imed       0.85     34.49    100.00    4.0000 A4200__-MM_-L-04_C5  MH124S017           
  A4200__-MM_-L-04_C5_Izero       2.95    119.72    100.00    0.0000 A4200__-MM_-L-04_C5  MH124S017           
  A4200__-MM_-L-04_C5_Phgh      22.11    897.26      0.00   26.7200 A4200__-MM_-L-04_C5  MH124S017           
  A4200__-MM_-L-04_C5_Plow       0.00      0.00      0.00    0.0000 A4200__-MM_-L-04_C5  MH124S017           
  A4200__-MM_-L-04_C5_Pmed       1.21     49.10      0.00    3.9100 A4200__-MM_-L-04_C5  MH124S017           
  A4200__-MM_-L-04_C5_Pzero       4.62    187.49      0.00    0.0000 A4200__-MM_-L-04_C5  MH124S017           
  A4200__-MM_-L-04_C6_Ihgh       1.83     70.92    100.00   12.9800 A4200__-MM_-L-04_C6  MH173J013           
  A4200__-MM_-L-04_C6_Ilow       0.00      0.00    100.00    0.0000 A4200__-MM_-L-04_C6  MH173J013           
  A4200__-MM_-L-04_C6_Imed       0.06      2.33    100.00    4.2700 A4200__-MM_-L-04_C6  MH173J013           
  A4200__-MM_-L-04_C6_Izero       0.36     13.95    100.00    0.0000 A4200__-MM_-L-04_C6  MH173J013           
  A4200__-MM_-L-04_C6_Phgh      12.58    487.54      0.00   27.5200 A4200__-MM_-L-04_C6  MH173J013           
  A4200__-MM_-L-04_C6_Plow       0.00      0.00      0.00    0.0000 A4200__-MM_-L-04_C6  MH173J013           
  A4200__-MM_-L-04_C6_Pmed       0.17      6.59      0.00    4.2000 A4200__-MM_-L-04_C6  MH173J013           
  A4200__-MM_-L-04_C6_Pzero       2.12     82.16      0.00    0.0000 A4200__-MM_-L-04_C6  MH173J013           
  A4200__-MM_-L-04_C7_Ihgh      15.52    253.06    100.00   16.1700 A4200__-MM_-L-04_C7  JCT173L008          
  A4200__-MM_-L-04_C7_Ilow       0.00      0.00    100.00    0.0000 A4200__-MM_-L-04_C7  JCT173L008          
  A4200__-MM_-L-04_C7_Imed       0.44      7.17    100.00    4.3100 A4200__-MM_-L-04_C7  JCT173L008          
  A4200__-MM_-L-04_C7_Izero       3.36     54.79    100.00    0.0000 A4200__-MM_-L-04_C7  JCT173L008          
  A4200__-MM_-L-04_C7_Phgh      55.25    900.87      0.00   22.5700 A4200__-MM_-L-04_C7  JCT173L008          
  A4200__-MM_-L-04_C7_Plow       0.00      0.00      0.00    0.0000 A4200__-MM_-L-04_C7  JCT173L008          
  A4200__-MM_-L-04_C7_Pmed       2.03     33.10      0.00    3.4600 A4200__-MM_-L-04_C7  JCT173L008          
  A4200__-MM_-L-04_C7_Pzero       8.84    144.14      0.00    0.0000 A4200__-MM_-L-04_C7  JCT173L008          
  A4200__-MM_-L-04_C8_Ihgh       5.99    128.02    100.00   17.1500 A4200__-MM_-L-04_C8  MH173F004           
  A4200__-MM_-L-04_C8_Ilow       0.00      0.00    100.00    0.0000 A4200__-MM_-L-04_C8  MH173F004           
  A4200__-MM_-L-04_C8_Imed       0.02      0.43    100.00    4.2600 A4200__-MM_-L-04_C8  MH173F004           
  A4200__-MM_-L-04_C8_Izero       0.69     14.75    100.00    0.0000 A4200__-MM_-L-04_C8  MH173F004           
  A4200__-MM_-L-04_C8_Phgh      17.79    380.21      0.00   21.0200 A4200__-MM_-L-04_C8  MH173F004           
  A4200__-MM_-L-04_C8_Plow       0.00      0.00      0.00    0.0000 A4200__-MM_-L-04_C8  MH173F004           
  A4200__-MM_-L-04_C8_Pmed       0.03      0.64      0.00    4.8500 A4200__-MM_-L-04_C8  MH173F004           
  A4200__-MM_-L-04_C8_Pzero       2.14     45.74      0.00    0.0000 A4200__-MM_-L-04_C8  MH173F004           
  A4200__-MM_-L-04_C9_Ihgh       1.44     76.51    100.00   20.8200 A4200__-MM_-L-04_C9  MH124R016           
  A4200__-MM_-L-04_C9_Ilow       0.00      0.00    100.00    0.0000 A4200__-MM_-L-04_C9  MH124R016           
  A4200__-MM_-L-04_C9_Imed       1.15     61.10    100.00    3.9900 A4200__-MM_-L-04_C9  MH124R016           
  A4200__-MM_-L-04_C9_Izero       2.55    135.49    100.00    0.0600 A4200__-MM_-L-04_C9  MH124R016           
  A4200__-MM_-L-04_C9_Phgh       4.40    233.78      0.00   46.2200 A4200__-MM_-L-04_C9  MH124R016           
  A4200__-MM_-L-04_C9_Plow       0.00      0.00      0.00    0.0000 A4200__-MM_-L-04_C9  MH124R016           
  A4200__-MM_-L-04_C9_Pmed       0.61     32.41      0.00    3.6800 A4200__-MM_-L-04_C9  MH124R016           
  A4200__-MM_-L-04_C9_Pzero       0.90     47.82      0.00    0.0000 A4200__-MM_-L-04_C9  MH124R016           
  A4200__-MM_-L-06_C1_Ihgh       3.25     71.19    100.00    9.6400 A4200__-MM_-L-06_C1  MH125D007           
  A4200__-MM_-L-06_C1_Ilow       0.00      0.00    100.00    0.0000 A4200__-MM_-L-06_C1  MH125D007           
  A4200__-MM_-L-06_C1_Imed       1.97     43.15    100.00    3.5600 A4200__-MM_-L-06_C1  MH125D007           
  A4200__-MM_-L-06_C1_Izero       5.92    129.68    100.00    0.0100 A4200__-MM_-L-06_C1  MH125D007           
  A4200__-MM_-L-06_C1_Phgh       4.17     91.34      0.00   16.9100 A4200__-MM_-L-06_C1  MH125D007           
  A4200__-MM_-L-06_C1_Plow       0.00      0.00      0.00    0.0000 A4200__-MM_-L-06_C1  MH125D007           
  A4200__-MM_-L-06_C1_Pmed       2.91     63.74      0.00    3.3800 A4200__-MM_-L-06_C1  MH125D007           
  A4200__-MM_-L-06_C1_Pzero       7.65    167.57      0.00    0.0000 A4200__-MM_-L-06_C1  MH125D007           
  A4200__-MM_-L-07_C10_Ihgh       4.42    120.24    100.00   13.5200 A4200__-MM_-L-07_C10 MH175D007           
  A4200__-MM_-L-07_C10_Ilow       0.00      0.00    100.00    0.0000 A4200__-MM_-L-07_C10 MH175D007           
  A4200__-MM_-L-07_C10_Imed       1.33     36.18    100.00    3.1400 A4200__-MM_-L-07_C10 MH175D007           
  A4200__-MM_-L-07_C10_Izero       2.72     74.00    100.00    0.0100 A4200__-MM_-L-07_C10 MH175D007           
  A4200__-MM_-L-07_C10_Phgh      11.05    300.61      0.00   32.7900 A4200__-MM_-L-07_C10 MH175D007           
  A4200__-MM_-L-07_C10_Plow       0.00      0.00      0.00    0.0000 A4200__-MM_-L-07_C10 MH175D007           
  A4200__-MM_-L-07_C10_Pmed       1.90     51.69      0.00    3.0800 A4200__-MM_-L-07_C10 MH175D007           
  A4200__-MM_-L-07_C10_Pzero       2.41     65.56      0.00    0.0000 A4200__-MM_-L-07_C10 MH175D007           
  A4200__-MM_-L-07_C11_Ihgh       7.98    203.06    100.00   13.9000 A4200__-MM_-L-07_C11 MH175H021           
  A4200__-MM_-L-07_C11_Ilow       0.00      0.00    100.00    0.0000 A4200__-MM_-L-07_C11 MH175H021           
  A4200__-MM_-L-07_C11_Imed       0.17      4.33    100.00    4.0600 A4200__-MM_-L-07_C11 MH175H021           
  A4200__-MM_-L-07_C11_Izero       0.96     24.43    100.00    0.0000 A4200__-MM_-L-07_C11 MH175H021           
  A4200__-MM_-L-07_C11_Phgh      25.69    653.71      0.00   22.8200 A4200__-MM_-L-07_C11 MH175H021           
  A4200__-MM_-L-07_C11_Plow       0.00      0.00      0.00    0.0000 A4200__-MM_-L-07_C11 MH175H021           
  A4200__-MM_-L-07_C11_Pmed       0.79     20.10      0.00    4.0700 A4200__-MM_-L-07_C11 MH175H021           
  A4200__-MM_-L-07_C11_Pzero       2.08     52.93      0.00    0.0000 A4200__-MM_-L-07_C11 MH175H021           
  A4200__-MM_-L-07_C12_Ihgh      16.93    338.87    100.00   15.6400 A4200__-MM_-L-07_C12 JCT231N014          
  A4200__-MM_-L-07_C12_Ilow       0.00      0.00    100.00    0.0000 A4200__-MM_-L-07_C12 JCT231N014          
  A4200__-MM_-L-07_C12_Imed       3.54     70.86    100.00    3.4700 A4200__-MM_-L-07_C12 JCT231N014          
  A4200__-MM_-L-07_C12_Izero       6.30    126.10    100.00    0.0100 A4200__-MM_-L-07_C12 JCT231N014          
  A4200__-MM_-L-07_C12_Phgh      58.72   1175.34      0.00   24.6800 A4200__-MM_-L-07_C12 JCT231N014          
  A4200__-MM_-L-07_C12_Plow       0.00      0.00      0.00    0.0000 A4200__-MM_-L-07_C12 JCT231N014          
  A4200__-MM_-L-07_C12_Pmed       2.26     45.24      0.00    3.6100 A4200__-MM_-L-07_C12 JCT231N014          
  A4200__-MM_-L-07_C12_Pzero       7.71    154.32      0.00    0.0000 A4200__-MM_-L-07_C12 JCT231N014          
  A4200__-MM_-L-07_C13_Ihgh      11.81    323.08    100.00   15.1900 A4200__-MM_-L-07_C13 JCT231F003          
  A4200__-MM_-L-07_C13_Ilow       0.00      0.00    100.00    0.0000 A4200__-MM_-L-07_C13 JCT231F003          
  A4200__-MM_-L-07_C13_Imed       2.47     67.57    100.00    4.0700 A4200__-MM_-L-07_C13 JCT231F003          
  A4200__-MM_-L-07_C13_Izero       2.26     61.83    100.00    0.0100 A4200__-MM_-L-07_C13 JCT231F003          
  A4200__-MM_-L-07_C13_Phgh      38.98   1066.35      0.00   25.3000 A4200__-MM_-L-07_C13 JCT231F003          
  A4200__-MM_-L-07_C13_Plow       0.00      0.00      0.00    0.0000 A4200__-MM_-L-07_C13 JCT231F003          
  A4200__-MM_-L-07_C13_Pmed       1.84     50.34      0.00    3.9700 A4200__-MM_-L-07_C13 JCT231F003          
  A4200__-MM_-L-07_C13_Pzero       3.26     89.18      0.00    0.0000 A4200__-MM_-L-07_C13 JCT231F003          
  A4200__-MM_-L-07_C14_Ihgh       4.03     85.60    100.00   20.5700 A4200__-MM_-L-07_C14 MH174M008           
  A4200__-MM_-L-07_C14_Ilow       0.00      0.00    100.00    0.0000 A4200__-MM_-L-07_C14 MH174M008           
  A4200__-MM_-L-07_C14_Imed       0.07      1.49    100.00    4.6300 A4200__-MM_-L-07_C14 MH174M008           
  A4200__-MM_-L-07_C14_Izero       0.57     12.11    100.00    0.0000 A4200__-MM_-L-07_C14 MH174M008           
  A4200__-MM_-L-07_C14_Phgh      22.79    484.10      0.00   29.8200 A4200__-MM_-L-07_C14 MH174M008           
  A4200__-MM_-L-07_C14_Plow       0.00      0.00      0.00    0.0000 A4200__-MM_-L-07_C14 MH174M008           
  A4200__-MM_-L-07_C14_Pmed       0.13      2.76      0.00    4.7400 A4200__-MM_-L-07_C14 MH174M008           
  A4200__-MM_-L-07_C14_Pzero       1.54     32.71      0.00    0.0000 A4200__-MM_-L-07_C14 MH174M008           
  A4200__-MM_-L-07_C15_Ihgh       8.20    137.47    100.00   12.5500 A4200__-MM_-L-07_C15 JCT174K014          
  A4200__-MM_-L-07_C15_Ilow       0.00      0.00    100.00    0.0000 A4200__-MM_-L-07_C15 JCT174K014          
  A4200__-MM_-L-07_C15_Imed       3.74     62.70    100.00    3.2900 A4200__-MM_-L-07_C15 JCT174K014          
  A4200__-MM_-L-07_C15_Izero       4.14     69.41    100.00    0.0500 A4200__-MM_-L-07_C15 JCT174K014          
  A4200__-MM_-L-07_C15_Phgh      19.24    322.55      0.00   22.2900 A4200__-MM_-L-07_C15 JCT174K014          
  A4200__-MM_-L-07_C15_Plow       0.00      0.00      0.00    0.0000 A4200__-MM_-L-07_C15 JCT174K014          
  A4200__-MM_-L-07_C15_Pmed       3.38     56.66      0.00    3.6900 A4200__-MM_-L-07_C15 JCT174K014          
  A4200__-MM_-L-07_C15_Pzero       3.99     66.89      0.00    0.0000 A4200__-MM_-L-07_C15 JCT174K014          
  A4200__-MM_-L-07_C16_Ihgh       3.75    102.92    100.00   10.8600 A4200__-MM_-L-07_C16 MH174F020           
  A4200__-MM_-L-07_C16_Ilow       0.00      0.00    100.00    0.0000 A4200__-MM_-L-07_C16 MH174F020           
  A4200__-MM_-L-07_C16_Imed       2.65     72.73    100.00    3.8300 A4200__-MM_-L-07_C16 MH174F020           
  A4200__-MM_-L-07_C16_Izero       3.39     93.04    100.00    0.0000 A4200__-MM_-L-07_C16 MH174F020           
  A4200__-MM_-L-07_C16_Phgh       5.29    145.19      0.00   14.0000 A4200__-MM_-L-07_C16 MH174F020           
  A4200__-MM_-L-07_C16_Plow       0.00      0.00      0.00    0.0000 A4200__-MM_-L-07_C16 MH174F020           
  A4200__-MM_-L-07_C16_Pmed       3.08     84.53      0.00    3.7800 A4200__-MM_-L-07_C16 MH174F020           
  A4200__-MM_-L-07_C16_Pzero       4.55    124.88      0.00    0.0000 A4200__-MM_-L-07_C16 MH174F020           
  A4200__-MM_-L-07_C17_Ihgh      27.57    248.11    100.00   15.9900 A4200__-MM_-L-07_C17 JCT174M004          
  A4200__-MM_-L-07_C17_Ilow       0.00      0.00    100.00    0.0000 A4200__-MM_-L-07_C17 JCT174M004          
  A4200__-MM_-L-07_C17_Imed       2.40     21.60    100.00    3.5900 A4200__-MM_-L-07_C17 JCT174M004          
  A4200__-MM_-L-07_C17_Izero       5.47     49.23    100.00    0.0200 A4200__-MM_-L-07_C17 JCT174M004          
  A4200__-MM_-L-07_C17_Phgh     221.90   1996.93      0.00   25.2000 A4200__-MM_-L-07_C17 JCT174M004          
  A4200__-MM_-L-07_C17_Plow       0.03      0.27      0.00    0.6500 A4200__-MM_-L-07_C17 JCT174M004          
  A4200__-MM_-L-07_C17_Pmed       3.04     27.36      0.00    3.8400 A4200__-MM_-L-07_C17 JCT174M004          
  A4200__-MM_-L-07_C17_Pzero      15.79    142.10      0.00    0.0000 A4200__-MM_-L-07_C17 JCT174M004          
  A4200__-MM_-L-07_C1_Ihgh       1.06     33.79    100.00    8.3200 A4200__-MM_-L-07_C1  JCT125D002          
  A4200__-MM_-L-07_C1_Ilow       0.00      0.00    100.00    0.0000 A4200__-MM_-L-07_C1  JCT125D002          
  A4200__-MM_-L-07_C1_Imed       1.07     34.11    100.00    3.9600 A4200__-MM_-L-07_C1  JCT125D002          
  A4200__-MM_-L-07_C1_Izero       1.38     43.99    100.00    0.0500 A4200__-MM_-L-07_C1  JCT125D002          
  A4200__-MM_-L-07_C1_Phgh       3.06     97.54      0.00   21.6600 A4200__-MM_-L-07_C1  JCT125D002          
  A4200__-MM_-L-07_C1_Plow       0.00      0.00      0.00    0.0000 A4200__-MM_-L-07_C1  JCT125D002          
  A4200__-MM_-L-07_C1_Pmed       2.53     80.65      0.00    3.6700 A4200__-MM_-L-07_C1  JCT125D002          
  A4200__-MM_-L-07_C1_Pzero       2.41     76.82      0.00    0.0000 A4200__-MM_-L-07_C1  JCT125D002          
  A4200__-MM_-L-07_C2_Ihgh       2.42    128.93    100.00    7.8200 A4200__-MM_-L-07_C2  JCT174J003          
  A4200__-MM_-L-07_C2_Ilow       0.00      0.00    100.00    0.0000 A4200__-MM_-L-07_C2  JCT174J003          
  A4200__-MM_-L-07_C2_Imed       2.38    126.80    100.00    3.9600 A4200__-MM_-L-07_C2  JCT174J003          
  A4200__-MM_-L-07_C2_Izero       2.83    150.77    100.00    0.0100 A4200__-MM_-L-07_C2  JCT174J003          
  A4200__-MM_-L-07_C2_Phgh       3.05    162.49      0.00    8.2100 A4200__-MM_-L-07_C2  JCT174J003          
  A4200__-MM_-L-07_C2_Plow       0.00      0.00      0.00    0.0000 A4200__-MM_-L-07_C2  JCT174J003          
  A4200__-MM_-L-07_C2_Pmed       2.77    147.58      0.00    4.0000 A4200__-MM_-L-07_C2  JCT174J003          
  A4200__-MM_-L-07_C2_Pzero       2.87    152.90      0.00    0.0000 A4200__-MM_-L-07_C2  JCT174J003          
  A4200__-MM_-L-07_C3_Ihgh       0.37     28.21    100.00    8.9400 A4200__-MM_-L-07_C3  MH174K016           
  A4200__-MM_-L-07_C3_Ilow       0.00      0.00    100.00    0.0000 A4200__-MM_-L-07_C3  MH174K016           
  A4200__-MM_-L-07_C3_Imed       0.98     74.71    100.00    2.7700 A4200__-MM_-L-07_C3  MH174K016           
  A4200__-MM_-L-07_C3_Izero       1.59    121.21    100.00    0.0000 A4200__-MM_-L-07_C3  MH174K016           
  A4200__-MM_-L-07_C3_Phgh       0.53     40.40      0.00   10.1000 A4200__-MM_-L-07_C3  MH174K016           
  A4200__-MM_-L-07_C3_Plow       0.00      0.00      0.00    0.0000 A4200__-MM_-L-07_C3  MH174K016           
  A4200__-MM_-L-07_C3_Pmed       1.19     90.71      0.00    2.8700 A4200__-MM_-L-07_C3  MH174K016           
  A4200__-MM_-L-07_C3_Pzero       2.12    161.61      0.00    0.0000 A4200__-MM_-L-07_C3  MH174K016           
  A4200__-MM_-L-07_C4_Ihgh       2.94     56.29    100.00    7.6200 A4200__-MM_-L-07_C4  JCT174P004          
  A4200__-MM_-L-07_C4_Ilow       0.00      0.00    100.00    0.0000 A4200__-MM_-L-07_C4  JCT174P004          
  A4200__-MM_-L-07_C4_Imed       7.19    137.66    100.00    3.3400 A4200__-MM_-L-07_C4  JCT174P004          
  A4200__-MM_-L-07_C4_Izero      11.05    211.56    100.00    0.0200 A4200__-MM_-L-07_C4  JCT174P004          
  A4200__-MM_-L-07_C4_Phgh       4.29     82.13      0.00    7.9100 A4200__-MM_-L-07_C4  JCT174P004          
  A4200__-MM_-L-07_C4_Plow       0.00      0.00      0.00    0.0000 A4200__-MM_-L-07_C4  JCT174P004          
  A4200__-MM_-L-07_C4_Pmed      10.36    198.35      0.00    3.2900 A4200__-MM_-L-07_C4  JCT174P004          
  A4200__-MM_-L-07_C4_Pzero      13.29    254.45      0.00    0.0000 A4200__-MM_-L-07_C4  JCT174P004          
  A4200__-MM_-L-07_C5_Ihgh       0.00      0.00    100.00    0.0000 A4200__-MM_-L-07_C5  MH175A023           
  A4200__-MM_-L-07_C5_Ilow       0.00      0.00    100.00    0.0000 A4200__-MM_-L-07_C5  MH175A023           
  A4200__-MM_-L-07_C5_Imed       0.60     33.23    100.00    2.6600 A4200__-MM_-L-07_C5  MH175A023           
  A4200__-MM_-L-07_C5_Izero       0.58     32.12    100.00    0.0000 A4200__-MM_-L-07_C5  MH175A023           
  A4200__-MM_-L-07_C5_Phgh       0.02      1.11      0.00    5.0700 A4200__-MM_-L-07_C5  MH175A023           
  A4200__-MM_-L-07_C5_Plow       0.00      0.00      0.00    0.0000 A4200__-MM_-L-07_C5  MH175A023           
  A4200__-MM_-L-07_C5_Pmed       0.37     20.49      0.00    2.6600 A4200__-MM_-L-07_C5  MH175A023           
  A4200__-MM_-L-07_C5_Pzero       2.01    111.31      0.00    0.0000 A4200__-MM_-L-07_C5  MH175A023           
  A4200__-MM_-L-07_C6_Ihgh       1.83     49.43    100.00    6.5600 A4200__-MM_-L-07_C6  MH175C008           
  A4200__-MM_-L-07_C6_Ilow       0.00      0.00    100.00    0.0000 A4200__-MM_-L-07_C6  MH175C008           
  A4200__-MM_-L-07_C6_Imed       5.37    145.04    100.00    3.4100 A4200__-MM_-L-07_C6  MH175C008           
  A4200__-MM_-L-07_C6_Izero       8.86    239.30    100.00    0.0200 A4200__-MM_-L-07_C6  MH175C008           
  A4200__-MM_-L-07_C6_Phgh       3.00     81.03      0.00    7.5200 A4200__-MM_-L-07_C6  MH175C008           
  A4200__-MM_-L-07_C6_Plow       0.00      0.00      0.00    0.0000 A4200__-MM_-L-07_C6  MH175C008           
  A4200__-MM_-L-07_C6_Pmed       5.93    160.16      0.00    3.4900 A4200__-MM_-L-07_C6  MH175C008           
  A4200__-MM_-L-07_C6_Pzero       8.64    233.36      0.00    0.0000 A4200__-MM_-L-07_C6  MH175C008           
  A4200__-MM_-L-07_C7_Ihgh       0.72     50.27    100.00    8.8500 A4200__-MM_-L-07_C7  MH175M003           
  A4200__-MM_-L-07_C7_Ilow       0.00      0.00    100.00    0.0000 A4200__-MM_-L-07_C7  MH175M003           
  A4200__-MM_-L-07_C7_Imed       1.20     83.78    100.00    3.9900 A4200__-MM_-L-07_C7  MH175M003           
  A4200__-MM_-L-07_C7_Izero       1.12     78.19    100.00    0.0000 A4200__-MM_-L-07_C7  MH175M003           
  A4200__-MM_-L-07_C7_Phgh       1.19     83.08      0.00    6.7300 A4200__-MM_-L-07_C7  MH175M003           
  A4200__-MM_-L-07_C7_Plow       0.00      0.00      0.00    0.0000 A4200__-MM_-L-07_C7  MH175M003           
  A4200__-MM_-L-07_C7_Pmed       1.44    100.53      0.00    3.9300 A4200__-MM_-L-07_C7  MH175M003           
  A4200__-MM_-L-07_C7_Pzero       1.58    110.31      0.00    0.0000 A4200__-MM_-L-07_C7  MH175M003           
  A4200__-MM_-L-07_C8_Ihgh       0.68     65.99    100.00    7.1300 A4200__-MM_-L-07_C8  MH175H013           
  A4200__-MM_-L-07_C8_Ilow       0.00      0.00    100.00    0.0000 A4200__-MM_-L-07_C8  MH175H013           
  A4200__-MM_-L-07_C8_Imed       0.43     41.73    100.00    4.1000 A4200__-MM_-L-07_C8  MH175H013           
  A4200__-MM_-L-07_C8_Izero       0.56     54.35    100.00    0.0000 A4200__-MM_-L-07_C8  MH175H013           
  A4200__-MM_-L-07_C8_Phgh       1.36    131.98      0.00    7.9900 A4200__-MM_-L-07_C8  MH175H013           
  A4200__-MM_-L-07_C8_Plow       0.00      0.00      0.00    0.0000 A4200__-MM_-L-07_C8  MH175H013           
  A4200__-MM_-L-07_C8_Pmed       1.30    126.16      0.00    4.1800 A4200__-MM_-L-07_C8  MH175H013           
  A4200__-MM_-L-07_C8_Pzero       0.92     89.28      0.00    0.0000 A4200__-MM_-L-07_C8  MH175H013           
  A4200__-MM_-L-07_C9_Ihgh       3.24     68.87    100.00    7.1000 A4200__-MM_-L-07_C9  MH174K025           
  A4200__-MM_-L-07_C9_Ilow       0.00      0.00    100.00    0.0000 A4200__-MM_-L-07_C9  MH174K025           
  A4200__-MM_-L-07_C9_Imed       4.68     99.48    100.00    3.4900 A4200__-MM_-L-07_C9  MH174K025           
  A4200__-MM_-L-07_C9_Izero       6.61    140.50    100.00    0.0000 A4200__-MM_-L-07_C9  MH174K025           
  A4200__-MM_-L-07_C9_Phgh       5.00    106.28      0.00    7.4900 A4200__-MM_-L-07_C9  MH174K025           
  A4200__-MM_-L-07_C9_Plow       0.00      0.00      0.00    0.0000 A4200__-MM_-L-07_C9  MH174K025           
  A4200__-MM_-L-07_C9_Pmed       5.80    123.29      0.00    3.5200 A4200__-MM_-L-07_C9  MH174K025           
  A4200__-MM_-L-07_C9_Pzero       8.21    174.51      0.00    0.0000 A4200__-MM_-L-07_C9  MH174K025           
  A4200__-POC-L-01_C1_Ihgh       4.31     83.28    100.00   10.1700 A4200__-POC-L-01_C1  MH123F001           
  A4200__-POC-L-01_C1_Ilow       0.00      0.00    100.00    0.0000 A4200__-POC-L-01_C1  MH123F001           
  A4200__-POC-L-01_C1_Imed       4.02     77.67    100.00    3.4200 A4200__-POC-L-01_C1  MH123F001           
  A4200__-POC-L-01_C1_Izero       5.13     99.12    100.00    0.0000 A4200__-POC-L-01_C1  MH123F001           
  A4200__-POC-L-01_C1_Phgh      63.79   1232.51      0.00   40.6600 A4200__-POC-L-01_C1  MH123F001           
  A4200__-POC-L-01_C1_Plow       0.00      0.00      0.00    0.0000 A4200__-POC-L-01_C1  MH123F001           
  A4200__-POC-L-01_C1_Pmed       8.74    168.87      0.00    3.3800 A4200__-POC-L-01_C1  MH123F001           
  A4200__-POC-L-01_C1_Pzero      10.30    199.01      0.00    0.0000 A4200__-POC-L-01_C1  MH123F001           
  A4200__-POC-L-01_C2_Ihgh      22.98    326.83    100.00   11.1700 A4200__-POC-L-01_C2  MH124E012           
  A4200__-POC-L-01_C2_Ilow       0.00      0.00    100.00    0.0000 A4200__-POC-L-01_C2  MH124E012           
  A4200__-POC-L-01_C2_Imed       4.04     57.46    100.00    4.0900 A4200__-POC-L-01_C2  MH124E012           
  A4200__-POC-L-01_C2_Izero      11.20    159.29    100.00    0.0000 A4200__-POC-L-01_C2  MH124E012           
  A4200__-POC-L-01_C2_Phgh      44.06    626.64      0.00   21.7600 A4200__-POC-L-01_C2  MH124E012           
  A4200__-POC-L-01_C2_Plow       0.00      0.00      0.00    0.0000 A4200__-POC-L-01_C2  MH124E012           
  A4200__-POC-L-01_C2_Pmed       4.16     59.17      0.00    4.1100 A4200__-POC-L-01_C2  MH124E012           
  A4200__-POC-L-01_C2_Pzero      13.73    195.27      0.00    0.0000 A4200__-POC-L-01_C2  MH124E012           
  A4200__-POC-L-01_C3_Ihgh      63.21    255.63    100.00   10.9400 A4200__-POC-L-01_C3  JCT083M011          
  A4200__-POC-L-01_C3_Ilow       0.00      0.00    100.00    0.0000 A4200__-POC-L-01_C3  JCT083M011          
  A4200__-POC-L-01_C3_Imed      47.68    192.83    100.00    3.3200 A4200__-POC-L-01_C3  JCT083M011          
  A4200__-POC-L-01_C3_Izero      91.07    368.30    100.00    0.0300 A4200__-POC-L-01_C3  JCT083M011          
  A4200__-POC-L-01_C3_Phgh     134.00    541.92      0.00   14.5100 A4200__-POC-L-01_C3  JCT083M011          
  A4200__-POC-L-01_C3_Plow       0.00      0.00      0.00    0.0000 A4200__-POC-L-01_C3  JCT083M011          
  A4200__-POC-L-01_C3_Pmed      47.25    191.09      0.00    3.5800 A4200__-POC-L-01_C3  JCT083M011          
  A4200__-POC-L-01_C3_Pzero      88.66    358.56      0.00    0.0000 A4200__-POC-L-01_C3  JCT083M011          
  A4200__-POC-L-01_C4_Ihgh       1.98     42.34    100.00   12.3400 A4200__-POC-L-01_C4  JCT124E004          
  A4200__-POC-L-01_C4_Ilow       0.00      0.00    100.00    0.0000 A4200__-POC-L-01_C4  JCT124E004          
  A4200__-POC-L-01_C4_Imed       1.79     38.27    100.00    3.4300 A4200__-POC-L-01_C4  JCT124E004          
  A4200__-POC-L-01_C4_Izero       2.89     61.79    100.00    0.0000 A4200__-POC-L-01_C4  JCT124E004          
  A4200__-POC-L-01_C4_Phgh       5.42    115.89      0.00   23.7600 A4200__-POC-L-01_C4  JCT124E004          
  A4200__-POC-L-01_C4_Plow       0.00      0.00      0.00    0.0000 A4200__-POC-L-01_C4  JCT124E004          
  A4200__-POC-L-01_C4_Pmed       3.69     78.90      0.00    3.4000 A4200__-POC-L-01_C4  JCT124E004          
  A4200__-POC-L-01_C4_Pzero       4.90    104.77      0.00    0.0000 A4200__-POC-L-01_C4  JCT124E004          
  A4200__-POC-L-01_C5_Ihgh       4.23     53.69    100.00   12.9900 A4200__-POC-L-01_C5  MH124F010           
  A4200__-POC-L-01_C5_Ilow       0.00      0.00    100.00    0.0000 A4200__-POC-L-01_C5  MH124F010           
  A4200__-POC-L-01_C5_Imed       7.33     93.04    100.00    3.2000 A4200__-POC-L-01_C5  MH124F010           
  A4200__-POC-L-01_C5_Izero      10.64    135.05    100.00    0.0200 A4200__-POC-L-01_C5  MH124F010           
  A4200__-POC-L-01_C5_Phgh       8.48    107.63      0.00   25.8900 A4200__-POC-L-01_C5  MH124F010           
  A4200__-POC-L-01_C5_Plow       0.00      0.00      0.00    0.0000 A4200__-POC-L-01_C5  MH124F010           
  A4200__-POC-L-01_C5_Pmed      10.31    130.86      0.00    3.2400 A4200__-POC-L-01_C5  MH124F010           
  A4200__-POC-L-01_C5_Pzero      13.94    176.94      0.00    0.0000 A4200__-POC-L-01_C5  MH124F010           
  A4200__-POC-L-02_C1_Ihgh       0.55     14.07    100.00   12.6700 A4200__-POC-L-02_C1  MH123B002           
  A4200__-POC-L-02_C1_Ilow       0.00      0.00    100.00    0.0000 A4200__-POC-L-02_C1  MH123B002           
  A4200__-POC-L-02_C1_Imed       0.40     10.23    100.00    3.4100 A4200__-POC-L-02_C1  MH123B002           
  A4200__-POC-L-02_C1_Izero       1.08     27.62    100.00    0.0000 A4200__-POC-L-02_C1  MH123B002           
  A4200__-POC-L-02_C1_Phgh      30.93    790.97      0.00   35.5200 A4200__-POC-L-02_C1  MH123B002           
  A4200__-POC-L-02_C1_Plow       0.00      0.00      0.00    0.0000 A4200__-POC-L-02_C1  MH123B002           
  A4200__-POC-L-02_C1_Pmed       2.62     67.00      0.00    3.7200 A4200__-POC-L-02_C1  MH123B002           
  A4200__-POC-L-02_C1_Pzero       3.03     77.49      0.00    0.0000 A4200__-POC-L-02_C1  MH123B002           
  A4200__-POC-L-02_C2_Ihgh       6.01     96.70    100.00   10.1000 A4200__-POC-L-02_C2  MH123F002           
  A4200__-POC-L-02_C2_Ilow       0.00      0.00    100.00    0.0000 A4200__-POC-L-02_C2  MH123F002           
  A4200__-POC-L-02_C2_Imed       3.91     62.91    100.00    4.0200 A4200__-POC-L-02_C2  MH123F002           
  A4200__-POC-L-02_C2_Izero       8.60    138.37    100.00    0.0200 A4200__-POC-L-02_C2  MH123F002           
  A4200__-POC-L-02_C2_Phgh      65.40   1052.29      0.00   29.9000 A4200__-POC-L-02_C2  MH123F002           
  A4200__-POC-L-02_C2_Plow       0.00      0.00      0.00    0.0000 A4200__-POC-L-02_C2  MH123F002           
  A4200__-POC-L-02_C2_Pmed       6.21     99.92      0.00    3.8800 A4200__-POC-L-02_C2  MH123F002           
  A4200__-POC-L-02_C2_Pzero      11.63    187.13      0.00    0.0000 A4200__-POC-L-02_C2  MH123F002           
  A4200__-POC-L-02_C3_Ihgh      26.80    296.44    100.00   11.6200 A4200__-POC-L-02_C3  MH123S001           
  A4200__-POC-L-02_C3_Ilow       1.99     22.01    100.00    0.7000 A4200__-POC-L-02_C3  MH123S001           
  A4200__-POC-L-02_C3_Imed       4.04     44.69    100.00    3.0100 A4200__-POC-L-02_C3  MH123S001           
  A4200__-POC-L-02_C3_Izero      11.94    132.07    100.00    0.0400 A4200__-POC-L-02_C3  MH123S001           
  A4200__-POC-L-02_C3_Phgh     142.90   1580.63      0.00   24.4200 A4200__-POC-L-02_C3  MH123S001           
  A4200__-POC-L-02_C3_Plow       1.53     16.92      0.00    0.6900 A4200__-POC-L-02_C3  MH123S001           
  A4200__-POC-L-02_C3_Pmed       6.08     67.25      0.00    3.6200 A4200__-POC-L-02_C3  MH123S001           
  A4200__-POC-L-02_C3_Pzero      19.74    218.35      0.00    0.0000 A4200__-POC-L-02_C3  MH123S001           
  A4200__-POC-L-02_C4_Ihgh       8.46    120.07    100.00   11.9400 A4200__-POC-L-02_C4  JCT124B004          
  A4200__-POC-L-02_C4_Ilow       0.00      0.00    100.00    0.0000 A4200__-POC-L-02_C4  JCT124B004          
  A4200__-POC-L-02_C4_Imed       1.40     19.87    100.00    3.9700 A4200__-POC-L-02_C4  JCT124B004          
  A4200__-POC-L-02_C4_Izero       2.57     36.48    100.00    0.0000 A4200__-POC-L-02_C4  JCT124B004          
  A4200__-POC-L-02_C4_Phgh      38.44    545.58      0.00   19.9800 A4200__-POC-L-02_C4  JCT124B004          
  A4200__-POC-L-02_C4_Plow       0.00      0.00      0.00    0.0000 A4200__-POC-L-02_C4  JCT124B004          
  A4200__-POC-L-02_C4_Pmed       4.17     59.18      0.00    4.0800 A4200__-POC-L-02_C4  JCT124B004          
  A4200__-POC-L-02_C4_Pzero       8.09    114.82      0.00    0.0000 A4200__-POC-L-02_C4  JCT124B004          
  A4200__-POC-L-02_C5_Ihgh       0.62     22.76    100.00   22.0700 A4200__-POC-L-02_C5  MH124F012           
  A4200__-POC-L-02_C5_Ilow       0.00      0.00    100.00    0.0000 A4200__-POC-L-02_C5  MH124F012           
  A4200__-POC-L-02_C5_Imed       0.09      3.30    100.00    4.5800 A4200__-POC-L-02_C5  MH124F012           
  A4200__-POC-L-02_C5_Izero       1.18     43.33    100.00    0.0000 A4200__-POC-L-02_C5  MH124F012           
  A4200__-POC-L-02_C5_Phgh       7.92    290.80      0.00   44.0200 A4200__-POC-L-02_C5  MH124F012           
  A4200__-POC-L-02_C5_Plow       0.00      0.00      0.00    0.0000 A4200__-POC-L-02_C5  MH124F012           
  A4200__-POC-L-02_C5_Pmed       0.10      3.67      0.00    4.7400 A4200__-POC-L-02_C5  MH124F012           
  A4200__-POC-L-02_C5_Pzero       1.51     55.44      0.00    0.0000 A4200__-POC-L-02_C5  MH124F012           
  A4200__-POC-L-02_C6_Ihgh       3.28    110.85    100.00   10.7400 A4200__-POC-L-02_C6  JCT124G005          
  A4200__-POC-L-02_C6_Ilow       0.00      0.00    100.00    0.0000 A4200__-POC-L-02_C6  JCT124G005          
  A4200__-POC-L-02_C6_Imed       0.31     10.48    100.00    3.9900 A4200__-POC-L-02_C6  JCT124G005          
  A4200__-POC-L-02_C6_Izero       0.85     28.73    100.00    0.0000 A4200__-POC-L-02_C6  JCT124G005          
  A4200__-POC-L-02_C6_Phgh       5.90    199.40      0.00   12.3100 A4200__-POC-L-02_C6  JCT124G005          
  A4200__-POC-L-02_C6_Plow       0.00      0.00      0.00    0.0000 A4200__-POC-L-02_C6  JCT124G005          
  A4200__-POC-L-02_C6_Pmed       1.13     38.19      0.00    4.0100 A4200__-POC-L-02_C6  JCT124G005          
  A4200__-POC-L-02_C6_Pzero       1.18     39.88      0.00    0.0000 A4200__-POC-L-02_C6  JCT124G005          
  A4200__-POC-L-02_C7_Ihgh       2.09    148.66    100.00   10.1700 A4200__-POC-L-02_C7  JCT124G002          
  A4200__-POC-L-02_C7_Ilow       0.00      0.00    100.00    0.0000 A4200__-POC-L-02_C7  JCT124G002          
  A4200__-POC-L-02_C7_Imed       0.30     21.34    100.00    4.2800 A4200__-POC-L-02_C7  JCT124G002          
  A4200__-POC-L-02_C7_Izero       0.38     27.03    100.00    0.0000 A4200__-POC-L-02_C7  JCT124G002          
  A4200__-POC-L-02_C7_Phgh       4.40    312.96      0.00   13.4700 A4200__-POC-L-02_C7  JCT124G002          
  A4200__-POC-L-02_C7_Plow       0.00      0.00      0.00    0.0000 A4200__-POC-L-02_C7  JCT124G002          
  A4200__-POC-L-02_C7_Pmed       0.68     48.37      0.00    4.4300 A4200__-POC-L-02_C7  JCT124G002          
  A4200__-POC-L-02_C7_Pzero       0.73     51.92      0.00    0.0000 A4200__-POC-L-02_C7  JCT124G002          
  A4200__-POC-L-02_C8_Ihgh      11.44    302.82    100.00   14.0300 A4200__-POC-L-02_C8  MH123N017           
  A4200__-POC-L-02_C8_Ilow       0.00      0.00    100.00    0.0000 A4200__-POC-L-02_C8  MH123N017           
  A4200__-POC-L-02_C8_Imed       2.98     78.88    100.00    3.8800 A4200__-POC-L-02_C8  MH123N017           
  A4200__-POC-L-02_C8_Izero       2.79     73.85    100.00    0.0000 A4200__-POC-L-02_C8  MH123N017           
  A4200__-POC-L-02_C8_Phgh      43.31   1146.42      0.00   26.0000 A4200__-POC-L-02_C8  MH123N017           
  A4200__-POC-L-02_C8_Plow       0.00      0.00      0.00    0.0000 A4200__-POC-L-02_C8  MH123N017           
  A4200__-POC-L-02_C8_Pmed       5.61    148.50      0.00    3.5400 A4200__-POC-L-02_C8  MH123N017           
  A4200__-POC-L-02_C8_Pzero       4.89    129.44      0.00    0.0000 A4200__-POC-L-02_C8  MH123N017           
  HR001_C1_Ihgh              2.50    118.20    100.00   14.8300 HR001_C1             JCT121S005          
  HR001_C1_Ilow              0.00      0.00    100.00    0.0000 HR001_C1             JCT121S005          
  HR001_C1_Imed              0.57     26.95    100.00    3.8000 HR001_C1             JCT121S005          
  HR001_C1_Izero             2.01     95.04    100.00    0.0900 HR001_C1             JCT121S005          
  HR001_C1_Phgh             12.99    614.18      0.00   30.6000 HR001_C1             JCT121S005          
  HR001_C1_Plow              0.00      0.00      0.00    0.0000 HR001_C1             JCT121S005          
  HR001_C1_Pmed              0.85     40.19      0.00    3.8700 HR001_C1             JCT121S005          
  HR001_C1_Pzero             2.89    136.64      0.00    0.0000 HR001_C1             JCT121S005          
  HR001_C2_Ihgh              6.14    230.37    100.00   11.9600 HR001_C2             MH121K024           
  HR001_C2_Ilow              0.00      0.00    100.00    0.0000 HR001_C2             MH121K024           
  HR001_C2_Imed              3.35    125.69    100.00    3.4100 HR001_C2             MH121K024           
  HR001_C2_Izero             4.78    179.34    100.00    0.0000 HR001_C2             MH121K024           
  HR001_C2_Phgh             12.25    459.61      0.00   21.4900 HR001_C2             MH121K024           
  HR001_C2_Plow              0.00      0.00      0.00    0.0000 HR001_C2             MH121K024           
  HR001_C2_Pmed              3.01    112.93      0.00    3.6400 HR001_C2             MH121K024           
  HR001_C2_Pzero             5.65    211.98      0.00    0.0000 HR001_C2             MH121K024           
  HR001_C3_Ihgh              6.38    157.94    100.00   13.2100 HR001_C3             JCT121E007          
  HR001_C3_Ilow              0.00      0.00    100.00    0.0000 HR001_C3             JCT121E007          
  HR001_C3_Imed              0.46     11.39    100.00    4.5000 HR001_C3             JCT121E007          
  HR001_C3_Izero             1.35     33.42    100.00    0.0000 HR001_C3             JCT121E007          
  HR001_C3_Phgh             14.03    347.32      0.00   16.0600 HR001_C3             JCT121E007          
  HR001_C3_Plow              0.00      0.00      0.00    0.0000 HR001_C3             JCT121E007          
  HR001_C3_Pmed              0.75     18.57      0.00    4.3900 HR001_C3             JCT121E007          
  HR001_C3_Pzero             3.41     84.42      0.00    0.0000 HR001_C3             JCT121E007          
  HR002_C1_Ihgh             95.23    587.33    100.00   11.8000 HR002_C1             JCT121P020          
  HR002_C1_Ilow              0.00      0.00    100.00    0.0000 HR002_C1             JCT121P020          
  HR002_C1_Imed             36.51    225.18    100.00    3.7300 HR002_C1             JCT121P020          
  HR002_C1_Izero            59.92    369.56    100.00    0.0000 HR002_C1             JCT121P020          
  HR002_C1_Phgh            252.70   1558.54      0.00   23.2300 HR002_C1             JCT121P020          
  HR002_C1_Plow              0.00      0.00      0.00    0.0000 HR002_C1             JCT121P020          
  HR002_C1_Pmed             49.78    307.02      0.00    3.6800 HR002_C1             JCT121P020          
  HR002_C1_Pzero            86.66    534.48      0.00    0.0000 HR002_C1             JCT121P020          
  HRZOO_C1_Ihgh              3.80    122.29    100.00   15.7700 HRZOO_C1             MHZOO               
  HRZOO_C1_Ilow              0.00      0.00    100.00    0.0000 HRZOO_C1             MHZOO               
  HRZOO_C1_Imed              0.41     13.19    100.00    3.9300 HRZOO_C1             MHZOO               
  HRZOO_C1_Izero             3.39    109.09    100.00    0.1000 HRZOO_C1             MHZOO               
  HRZOO_C1_Phgh             28.81    927.14      0.00   31.1700 HRZOO_C1             MHZOO               
  HRZOO_C1_Plow              0.00      0.00      0.00    0.0000 HRZOO_C1             MHZOO               
  HRZOO_C1_Pmed              0.48     15.45      0.00    4.5100 HRZOO_C1             MHZOO               
  HRZOO_C1_Pzero             4.16    133.87      0.00    0.0000 HRZOO_C1             MHZOO               
  INT_A35_C1_Ihgh           15.07    334.92    100.00   13.7000 INT_A35_C1           MH120J014           
  INT_A35_C1_Ilow            3.11     69.12    100.00    0.8000 INT_A35_C1           MH120J014           
  INT_A35_C1_Imed            8.95    198.91    100.00    3.1300 INT_A35_C1           MH120J014           
  INT_A35_C1_Izero          12.55    278.92    100.00    0.0400 INT_A35_C1           MH120J014           
  INT_A35_C1_Phgh           45.05   1001.22      0.00   34.6000 INT_A35_C1           MH120J014           
  INT_A35_C1_Plow            1.39     30.89      0.00    0.8000 INT_A35_C1           MH120J014           
  INT_A35_C1_Pmed            4.68    104.01      0.00    3.1400 INT_A35_C1           MH120J014           
  INT_A35_C1_Pzero           7.21    160.24      0.00    0.0000 INT_A35_C1           MH120J014           
  INT_A36_C1_Ihgh            7.38    307.02    100.00   13.6800 INT_A36_C1           MH120G005           
  INT_A36_C1_Ilow            0.00      0.00    100.00    0.0000 INT_A36_C1           MH120G005           
  INT_A36_C1_Imed            0.99     41.19    100.00    4.2400 INT_A36_C1           MH120G005           
  INT_A36_C1_Izero           2.39     99.43    100.00    0.0600 INT_A36_C1           MH120G005           
  INT_A36_C1_Phgh           15.89    661.05      0.00   39.8500 INT_A36_C1           MH120G005           
  INT_A36_C1_Plow            0.00      0.00      0.00    0.0000 INT_A36_C1           MH120G005           
  INT_A36_C1_Pmed            0.26     10.82      0.00    4.0200 INT_A36_C1           MH120G005           
  INT_A36_C1_Pzero           2.98    123.97      0.00    0.0000 INT_A36_C1           MH120G005           
  INT_A37A_C1_Ihgh           8.72    153.46    100.00   12.5400 INT_A37A_C1          JCT120H004          
  INT_A37A_C1_Ilow           0.00      0.00    100.00    0.0000 INT_A37A_C1          JCT120H004          
  INT_A37A_C1_Imed           0.71     12.50    100.00    4.2500 INT_A37A_C1          JCT120H004          
  INT_A37A_C1_Izero          4.57     80.43    100.00    0.0400 INT_A37A_C1          JCT120H004          
  INT_A37A_C1_Phgh          24.84    437.16      0.00   24.4600 INT_A37A_C1          JCT120H004          
  INT_A37A_C1_Plow           0.00      0.00      0.00    0.0000 INT_A37A_C1          JCT120H004          
  INT_A37A_C1_Pmed           1.09     19.18      0.00    4.2800 INT_A37A_C1          JCT120H004          
  INT_A37A_C1_Pzero          5.34     93.98      0.00    0.0000 INT_A37A_C1          JCT120H004          
  INT_A37_C1_Ihgh            0.82    101.91    100.00   10.9000 INT_A37_C1           MH120D001           
  INT_A37_C1_Ilow            0.00      0.00    100.00    0.0000 INT_A37_C1           MH120D001           
  INT_A37_C1_Imed            0.12     14.91    100.00    4.4000 INT_A37_C1           MH120D001           
  INT_A37_C1_Izero           0.23     28.59    100.00    0.0100 INT_A37_C1           MH120D001           
  INT_A37_C1_Phgh            0.73     90.73      0.00   30.7400 INT_A37_C1           MH120D001           
  INT_A37_C1_Plow            0.00      0.00      0.00    0.0000 INT_A37_C1           MH120D001           
  INT_A37_C1_Pmed            0.15     18.64      0.00    4.4800 INT_A37_C1           MH120D001           
  INT_A37_C1_Pzero           0.73     90.73      0.00    0.0000 INT_A37_C1           MH120D001           
  INT_A38_C1_Ihgh            2.40    109.51    100.00   31.8000 INT_A38_C1           JCT121A003          
  INT_A38_C1_Ilow            0.00      0.00    100.00    0.0000 INT_A38_C1           JCT121A003          
  INT_A38_C1_Imed            0.01      0.46    100.00    4.9800 INT_A38_C1           JCT121A003          
  INT_A38_C1_Izero           0.16      7.30    100.00    0.0000 INT_A38_C1           JCT121A003          
  INT_A38_C1_Phgh           12.20    556.68      0.00   49.8400 INT_A38_C1           JCT121A003          
  INT_A38_C1_Plow            0.00      0.00      0.00    0.0000 INT_A38_C1           JCT121A003          
  INT_A38_C1_Pmed            0.00      0.00      0.00    0.0000 INT_A38_C1           JCT121A003          
  INT_A38_C1_Pzero           0.60     27.38      0.00    0.0000 INT_A38_C1           JCT121A003          
  INT_A40_C1_Ihgh            4.63    216.89    100.00   14.7300 INT_A40_C1           JCT121G002          
  INT_A40_C1_Ilow            0.00      0.00    100.00    0.0000 INT_A40_C1           JCT121G002          
  INT_A40_C1_Imed            0.24     11.24    100.00    4.6200 INT_A40_C1           JCT121G002          
  INT_A40_C1_Izero           1.12     52.47    100.00    0.0100 INT_A40_C1           JCT121G002          
  INT_A40_C1_Phgh           12.17    570.09      0.00   32.7100 INT_A40_C1           JCT121G002          
  INT_A40_C1_Plow            0.00      0.00      0.00    0.0000 INT_A40_C1           JCT121G002          
  INT_A40_C1_Pmed            0.28     13.12      0.00    4.4200 INT_A40_C1           JCT121G002          
  INT_A40_C1_Pzero           0.81     37.94      0.00    0.0000 INT_A40_C1           JCT121G002          
  INT_A42_C1_Ihgh            0.54     13.91    100.00   13.3200 INT_A42_C1           A-42-02             
  INT_A42_C1_Ilow            0.00      0.00    100.00    0.0000 INT_A42_C1           A-42-02             
  INT_A42_C1_Imed            0.69     17.77    100.00    3.3900 INT_A42_C1           A-42-02             
  INT_A42_C1_Izero           0.43     11.08    100.00    0.0800 INT_A42_C1           A-42-02             
  INT_A42_C1_Phgh            4.68    120.55      0.00   35.2000 INT_A42_C1           A-42-02             
  INT_A42_C1_Plow            0.00      0.00      0.00    0.0000 INT_A42_C1           A-42-02             
  INT_A42_C1_Pmed            1.60     41.21      0.00    2.4600 INT_A42_C1           A-42-02             
  INT_A42_C1_Pzero           0.51     13.14      0.00    0.0000 INT_A42_C1           A-42-02             
  
  
  ************
  Node Summary
  ************
                                           Invert      Max.    Ponded    External
  Name                 Type                 Elev.     Depth      Area    Inflow  
  -------------------------------------------------------------------------------
  294                  JUNCTION            922.55     12.45       0.0
  408                  JUNCTION            919.71     14.78       0.0
  439                  JUNCTION            919.33     15.11       0.0
  568                  JUNCTION            918.22     15.42       0.0
  576                  JUNCTION            917.31     15.59       0.0
  589                  JUNCTION            917.00     15.96       0.0
  621                  JUNCTION            929.36     12.28       0.0
  628                  JUNCTION            930.47     12.52       0.0
  662                  JUNCTION            912.49     16.44       0.0
  688                  JUNCTION            915.56     18.37       0.0
  724                  JUNCTION            917.17     17.30       0.0
  735                  JUNCTION            913.98     20.05       0.0
  860                  JUNCTION            911.57     18.74       0.0
  964                  JUNCTION            907.94     21.22       0.0
  966                  JUNCTION            907.75     21.12       0.0
  969                  JUNCTION            908.24     16.74       0.0
  970                  JUNCTION            912.48     16.58       0.0
  A-24-DT              JUNCTION            636.00     96.00       0.0
  A-25-00              JUNCTION            712.14     18.23       0.0
  A-25-00-M1           JUNCTION            718.54     15.00       0.0
  A-25-DT              JUNCTION            636.10     94.70       0.0
  A-25-VOR             JUNCTION            711.29     19.67       0.0
  A-26-00              JUNCTION            714.92     16.61       0.0
  A-26-00-M1           JUNCTION            716.28     15.33       0.0
  A-26-DT              JUNCTION            636.60     94.80       0.0
  A-26-VOR             JUNCTION            714.16     17.38       0.0
  A-27-00              JUNCTION            711.73     20.75       0.0
  A-27-00-M1           JUNCTION            715.21     19.41       0.0
  A-27-DT              JUNCTION            637.10     95.90       0.0
  A-27-VOR             JUNCTION            709.98     22.33       0.0
  A-28-00              JUNCTION            712.30     15.37       0.0
  A-28-00-M1           JUNCTION            720.03     10.70       0.0
  A-28-DT              JUNCTION            637.50     90.60       0.0
  A-28-VOR             JUNCTION            710.34     17.42       0.0
  A-29-00              JUNCTION            707.47     23.29       0.0
  A-29-00-M1           JUNCTION            717.63     12.62       0.0
  A-29-DT              JUNCTION            638.60     92.20       0.0
  A-29Z-00             JUNCTION            721.37     17.54       0.0
  A-29Z-00-M1          JUNCTION            722.30     14.90       0.0
  A-29Z-SO             JUNCTION            721.37     17.54       0.0
  A-30-00              JUNCTION            713.95     20.83       0.0
  A-30-00-M1           JUNCTION            720.66     16.25       0.0
  A-30-DT              JUNCTION            639.30     96.20       0.0
  A-30-VOR             JUNCTION            713.45     21.26       0.0
  A-31-00              JUNCTION            713.25     22.88       0.0
  A-31-00-M1           JUNCTION            719.41     19.97       0.0
  A-31-DT              JUNCTION            639.80     96.80       0.0
  A-31-VOR             JUNCTION            712.91     23.41       0.0
  A-32-00              JUNCTION            711.51      7.69       0.0
  A-32-00-M1           JUNCTION            713.40     12.48       0.0
  A-32-DT              JUNCTION            640.20     81.33       0.0
  A-32-VOR             JUNCTION            710.14     10.87       0.0
  A-33-00              JUNCTION            707.16     11.66       0.0
  A-33-00-M1           JUNCTION            712.64     27.81       0.0
  A-33-DT              JUNCTION            640.60     75.10       0.0
  A-33-VOR             JUNCTION            706.57     11.39       0.0
  A-34-00              JUNCTION            707.08      9.96       0.0
  A-34-00-M1           JUNCTION            725.35     15.00       0.0
  A-34-DT              JUNCTION            640.80     77.20       0.0
  A-34-VOR             JUNCTION            706.74     10.30       0.0
  A-35-00              JUNCTION            714.43      8.40       0.0
  A-35-AS              JUNCTION            683.30     39.68       0.0
  A-35-DT              JUNCTION            641.60     81.90       0.0
  A-35-VOR             JUNCTION            713.34      9.64       0.0
  A-36-00              JUNCTION            711.92     28.46       0.0
  A-36-DT              JUNCTION            649.50     90.50       0.0
  A-36-OFWEIR          JUNCTION            711.91     28.47       0.0
  A-36-VOR             JUNCTION            709.17     31.23       0.0
  A-37-00              JUNCTION            705.73      9.68       0.0
  A-37-DT              JUNCTION            651.30     65.30       0.0
  A-37-VOR             JUNCTION            705.27     10.00       0.0
  A-37Z-00             JUNCTION            711.87      8.16       0.0
  A-38-00              JUNCTION            719.17      9.46       0.0
  A-38-DT              JUNCTION            655.10     74.20       0.0
  A-38-VOR             JUNCTION            718.68      9.95       0.0
  A-39-DT              JUNCTION            657.90     62.10       0.0
  A-40-00              JUNCTION            714.92      7.87       0.0
  A-40-DT              JUNCTION            660.30     63.20       0.0
  A-40-VOR             JUNCTION            713.64     10.70       0.0
  A-41-00              JUNCTION            713.22     31.17       0.0
  A-41-DT              JUNCTION            663.50     75.20       0.0
  A-41-OFWEIR          JUNCTION            713.21     31.18       0.0
  A-42-02              JUNCTION            711.48     28.11       0.0
  A-42-04              JUNCTION            723.04     16.25       0.0
  A-42-06              JUNCTION            726.72     15.50       0.0
  A-42-08              JUNCTION            729.24     22.19       0.0
  A-42-16              JUNCTION            733.29     14.62       0.0
  A-42-28              JUNCTION            733.87     15.41       0.0
[...]
              0.9596     0.9481     0.9327     0.9135     0.8942 
              0.8750     0.8558     0.8327     0.8058     0.7788 
              0.7442     0.7096     0.6673     0.6173     0.5673 
              0.5096     0.4519     0.3678     0.2572     0.0000 

  Shape ARCH_75_81
  Area:  
              0.0058     0.0166     0.0309     0.0472     0.0654 
              0.0854     0.1069     0.1299     0.1535     0.1773 
              0.2014     0.2254     0.2495     0.2736     0.2976 
              0.3217     0.3457     0.3698     0.3938     0.4179 
              0.4419     0.4660     0.4900     0.5141     0.5381 
              0.5622     0.5862     0.6103     0.6341     0.6576 
              0.6808     0.7038     0.7265     0.7487     0.7703 
              0.7915     0.8124     0.8328     0.8526     0.8717 
              0.8900     0.9075     0.9241     0.9397     0.9541 
              0.9671     0.9787     0.9885     0.9960     1.0000 
  Hrad:  
              0.0491     0.0989     0.1497     0.2023     0.2512 
              0.3001     0.3466     0.3976     0.4522     0.5039 
              0.5539     0.6007     0.6448     0.6862     0.7254 
              0.7623     0.7973     0.8304     0.8618     0.8917 
              0.9201     0.9472     0.9730     0.9976     1.0212 
              1.0437     1.0653     1.0854     1.1038     1.1210 
              1.1370     1.1519     1.1645     1.1744     1.1831 
              1.1927     1.2013     1.2070     1.2095     1.2108 
              1.2099     1.2079     1.2022     1.1927     1.1823 
              1.1652     1.1473     1.1205     1.0852     1.0000 
  Width: 
              0.3727     0.5255     0.6407     0.7185     0.7963 
              0.8630     0.9296     0.9704     0.9852     1.0000 
              1.0000     1.0000     1.0000     1.0000     1.0000 
              1.0000     1.0000     1.0000     1.0000     1.0000 
              1.0000     1.0000     1.0000     1.0000     1.0000 
              1.0000     1.0000     0.9944     0.9833     0.9722 
              0.9611     0.9500     0.9333     0.9111     0.8889 
              0.8741     0.8593     0.8370     0.8074     0.7778 
              0.7444     0.7111     0.6704     0.6222     0.5741 
              0.5111     0.4481     0.3634     0.2569     0.0000 

  Shape ARCH_78_72
  Area:  
              0.0059     0.0168     0.0309     0.0473     0.0656 
              0.0857     0.1073     0.1304     0.1539     0.1778 
              0.2018     0.2258     0.2498     0.2738     0.2979 
              0.3219     0.3459     0.3699     0.3939     0.4179 
              0.4419     0.4659     0.4900     0.5140     0.5380 
              0.5620     0.5860     0.6100     0.6338     0.6574 
              0.6807     0.7037     0.7264     0.7486     0.7703 
              0.7915     0.8122     0.8326     0.8523     0.8714 
              0.8898     0.9073     0.9240     0.9395     0.9539 
              0.9670     0.9787     0.9887     0.9961     1.0000 
  Hrad:  
              0.0533     0.1076     0.1613     0.2160     0.2666 
              0.3187     0.3680     0.4211     0.4768     0.5290 
              0.5786     0.6248     0.6678     0.7081     0.7457 
              0.7811     0.8143     0.8456     0.8752     0.9031 
              0.9296     0.9547     0.9785     1.0011     1.0227 
              1.0432     1.0628     1.0812     1.0983     1.1142 
              1.1285     1.1416     1.1528     1.1619     1.1698 
              1.1776     1.1845     1.1895     1.1925     1.1946 
              1.1932     1.1909     1.1855     1.1770     1.1675 
              1.1528     1.1372     1.1118     1.0770     1.0000 
  Width: 
              0.3777     0.5245     0.6391     0.7217     0.8043 
              0.8696     0.9348     0.9739     0.9870     1.0000 
              1.0000     1.0000     1.0000     1.0000     1.0000 
              1.0000     1.0000     1.0000     1.0000     1.0000 
              1.0000     1.0000     1.0000     1.0000     1.0000 
              1.0000     1.0000     0.9957     0.9870     0.9783 
              0.9652     0.9522     0.9348     0.9130     0.8913 
              0.8739     0.8565     0.8348     0.8087     0.7826 
              0.7478     0.7130     0.6717     0.6239     0.5761 
              0.5152     0.4543     0.3668     0.2527     0.0000 

  Shape ARCH_78_80
  Area:  
              0.0059     0.0168     0.0311     0.0475     0.0658 
              0.0858     0.1072     0.1301     0.1535     0.1774 
              0.2016     0.2257     0.2499     0.2740     0.2982 
              0.3223     0.3464     0.3706     0.3947     0.4189 
              0.4430     0.4672     0.4913     0.5154     0.5396 
              0.5637     0.5879     0.6120     0.6357     0.6591 
              0.6822     0.7050     0.7275     0.7495     0.7711 
              0.7922     0.8130     0.8333     0.8531     0.8721 
              0.8905     0.9080     0.9245     0.9400     0.9542 
              0.9671     0.9786     0.9885     0.9960     1.0000 
  Hrad:  
              0.0504     0.1017     0.1535     0.2070     0.2567 
              0.3074     0.3555     0.4069     0.4609     0.5120 
              0.5622     0.6091     0.6531     0.6944     0.7333 
              0.7700     0.8046     0.8373     0.8683     0.8977 
              0.9257     0.9522     0.9775     1.0016     1.0246 
              1.0466     1.0677     1.0868     1.1037     1.1192 
              1.1342     1.1482     1.1603     1.1704     1.1793 
              1.1882     1.1961     1.2017     1.2047     1.2067 
              1.2051     1.2025     1.1961     1.1858     1.1746 
              1.1596     1.1437     1.1182     1.0836     1.0000 
  Width: 
              0.3762     0.5267     0.6408     0.7184     0.7961 
              0.8583     0.9204     0.9612     0.9806     1.0000 
              1.0000     1.0000     1.0000     1.0000     1.0000 
              1.0000     1.0000     1.0000     1.0000     1.0000 
              1.0000     1.0000     1.0000     1.0000     1.0000 
              1.0000     1.0000     0.9922     0.9767     0.9612 
              0.9495     0.9379     0.9223     0.9029     0.8835 
              0.8680     0.8524     0.8311     0.8039     0.7767 
              0.7417     0.7068     0.6641     0.6136     0.5631 
              0.5049     0.4466     0.3641     0.2573     0.0000 

  Shape ARCH_82_90
  Area:  
              0.0059     0.0167     0.0310     0.0473     0.0657 
              0.0857     0.1072     0.1300     0.1535     0.1774 
              0.2014     0.2255     0.2496     0.2737     0.2978 
              0.3219     0.3460     0.3701     0.3942     0.4183 
              0.4424     0.4665     0.4906     0.5146     0.5387 
              0.5628     0.5869     0.6110     0.6347     0.6581 
              0.6812     0.7040     0.7266     0.7487     0.7704 
              0.7916     0.8124     0.8328     0.8525     0.8717 
              0.8901     0.9076     0.9242     0.9397     0.9541 
              0.9671     0.9787     0.9886     0.9961     1.0000 
  Hrad:  
              0.0488     0.0987     0.1489     0.2007     0.2488 
              0.2988     0.3462     0.3971     0.4509     0.5019 
              0.5520     0.5990     0.6433     0.6849     0.7242 
              0.7614     0.7965     0.8299     0.8615     0.8916 
              0.9203     0.9476     0.9736     0.9985     1.0223 
              1.0451     1.0669     1.0868     1.1045     1.1209 
              1.1368     1.1517     1.1647     1.1758     1.1857 
              1.1946     1.2026     1.2085     1.2123     1.2151 
              1.2130     1.2099     1.2037     1.1944     1.1840 
              1.1672     1.1495     1.1220     1.0853     1.0000 
  Width: 
              0.3750     0.5250     0.6400     0.7200     0.8000 
              0.8618     0.9236     0.9636     0.9818     1.0000 
              1.0000     1.0000     1.0000     1.0000     1.0000 
              1.0000     1.0000     1.0000     1.0000     1.0000 
              1.0000     1.0000     1.0000     1.0000     1.0000 
              1.0000     1.0000     0.9927     0.9782     0.9636 
              0.9527     0.9418     0.9273     0.9091     0.8909 
              0.8727     0.8545     0.8327     0.8073     0.7818 
              0.7455     0.7091     0.6673     0.6200     0.5727 
              0.5109     0.4491     0.3636     0.2545     0.0000 

  Shape ARCH_84_120
  Area:  
              0.0059     0.0168     0.0310     0.0474     0.0657 
              0.0856     0.1072     0.1301     0.1536     0.1775 
              0.2016     0.2257     0.2497     0.2738     0.2979 
              0.3220     0.3461     0.3702     0.3943     0.4184 
              0.4425     0.4666     0.4907     0.5147     0.5388 
              0.5629     0.5870     0.6111     0.6349     0.6584 
              0.6817     0.7046     0.7272     0.7493     0.7709 
              0.7921     0.8129     0.8332     0.8529     0.8720 
              0.8903     0.9077     0.9244     0.9398     0.9541 
              0.9670     0.9786     0.9885     0.9960     1.0000 
  Hrad:  
              0.0440     0.0892     0.1351     0.1829     0.2275 
              0.2732     0.3168     0.3650     0.4173     0.4676 
              0.5175     0.5650     0.6102     0.6533     0.6943 
              0.7335     0.7710     0.8069     0.8412     0.8741 
              0.9057     0.9360     0.9652     0.9932     1.0202 
              1.0462     1.0712     1.0946     1.1159     1.1360 
              1.1541     1.1709     1.1856     1.1980     1.2092 
              1.2203     1.2305     1.2373     1.2408     1.2431 
              1.2418     1.2395     1.2320     1.2194     1.2060 
              1.1878     1.1688     1.1381     1.0967     1.0000 
  Width: 
              0.3759     0.5262     0.6406     0.7189     0.7972 
              0.8615     0.9259     0.9664     0.9832     1.0000 
              1.0000     1.0000     1.0000     1.0000     1.0000 
              1.0000     1.0000     1.0000     1.0000     1.0000 
              1.0000     1.0000     1.0000     1.0000     1.0000 
              1.0000     1.0000     0.9944     0.9832     0.9720 
              0.9580     0.9441     0.9273     0.9077     0.8881 
              0.8713     0.8545     0.8322     0.8042     0.7762 
              0.7427     0.7091     0.6671     0.6168     0.5664 
              0.5077     0.4490     0.3654     0.2570     0.0000 

  Shape ARCH_85.5_90
  Area:  
              0.0059     0.0168     0.0310     0.0474     0.0657 
              0.0857     0.1072     0.1302     0.1537     0.1776 
              0.2016     0.2257     0.2497     0.2738     0.2978 
              0.3218     0.3459     0.3699     0.3940     0.4180 
              0.4421     0.4661     0.4902     0.5142     0.5382 
              0.5623     0.5863     0.6103     0.6341     0.6576 
              0.6808     0.7038     0.7264     0.7486     0.7704 
              0.7917     0.8125     0.8329     0.8526     0.8717 
              0.8901     0.9076     0.9243     0.9398     0.9541 
              0.9672     0.9787     0.9886     0.9961     1.0000 
  Hrad:  
              0.0500     0.1012     0.1524     0.2049     0.2537 
              0.3036     0.3510     0.4024     0.4569     0.5086 
              0.5585     0.6052     0.6490     0.6903     0.7291 
              0.7657     0.8004     0.8332     0.8642     0.8937 
              0.9218     0.9485     0.9739     0.9982     1.0214 
              1.0435     1.0647     1.0845     1.1024     1.1192 
              1.1348     1.1494     1.1620     1.1727     1.1822 
              1.1907     1.1982     1.2036     1.2069     1.2091 
              1.2079     1.2056     1.1995     1.1897     1.1788 
              1.1628     1.1458     1.1192     1.0833     1.0000 
  Width: 
              0.3786     0.5262     0.6400     0.7200     0.8000 
              0.8648     0.9295     0.9695     0.9848     1.0000 
              1.0000     1.0000     1.0000     1.0000     1.0000 
              1.0000     1.0000     1.0000     1.0000     1.0000 
              1.0000     1.0000     1.0000     1.0000     1.0000 
              1.0000     1.0000     0.9943     0.9829     0.9714 
              0.9600     0.9486     0.9333     0.9143     0.8952 
              0.8762     0.8571     0.8343     0.8076     0.7810 
              0.7467     0.7124     0.6705     0.6210     0.5714 
              0.5105     0.4495     0.3643     0.2548     0.0000 

  Shape ARCH_86_90
  Area:  
              0.0058     0.0166     0.0308     0.0472     0.0655 
              0.0856     0.1071     0.1299     0.1533     0.1772 
              0.2013     0.2254     0.2495     0.2736     0.2977 
              0.3218     0.3459     0.3700     0.3941     0.4182 
              0.4423     0.4665     0.4906     0.5147     0.5388 
              0.5629     0.5870     0.6111     0.6349     0.6584 
              0.6817     0.7045     0.7270     0.7491     0.7706 
              0.7918     0.8126     0.8330     0.8528     0.8720 
              0.8903     0.9078     0.9243     0.9397     0.9540 
              0.9671     0.9786     0.9886     0.9961     1.0000 
  Hrad:  
              0.0497     0.1001     0.1512     0.2039     0.2528 
              0.3038     0.3521     0.4035     0.4574     0.5085 
              0.5586     0.6056     0.6496     0.6910     0.7300 
              0.7668     0.8015     0.8344     0.8656     0.8952 
              0.9233     0.9501     0.9756     0.9999     1.0231 
              1.0453     1.0666     1.0864     1.1044     1.1212 
              1.1360     1.1496     1.1616     1.1719     1.1812 
              1.1903     1.1985     1.2043     1.2076     1.2099 
              1.2073     1.2035     1.1973     1.1888     1.1792 
              1.1631     1.1461     1.1194     1.0835     1.0000 
  Width: 
              0.3714     0.5238     0.6400     0.7200     0.8000 
              0.8610     0.9219     0.9619     0.9810     1.0000 
              1.0000     1.0000     1.0000     1.0000     1.0000 
              1.0000     1.0000     1.0000     1.0000     1.0000 
              1.0000     1.0000     1.0000     1.0000     1.0000 
              1.0000     1.0000     0.9943     0.9829     0.9714 
              0.9562     0.9410     0.9238     0.9048     0.8857 
              0.8705     0.8552     0.8343     0.8076     0.7810 
              0.7429     0.7048     0.6629     0.6171     0.5714 
              0.5105     0.4495     0.3643     0.2548     0.0000 

  Shape ARCH_96_92
  Area:  
              0.0059     0.0168     0.0312     0.0476     0.0660 
              0.0861     0.1076     0.1306     0.1541     0.1780 
              0.2020     0.2261     0.2502     0.2743     0.2984 
              0.3225     0.3466     0.3707     0.3947     0.4188 
              0.4429     0.4670     0.4911     0.5152     0.5393 
              0.5634     0.5874     0.6115     0.6353     0.6588 
              0.6819     0.7048     0.7274     0.7495     0.7710 
              0.7922     0.8129     0.8332     0.8529     0.8720 
              0.8904     0.9079     0.9244     0.9399     0.9542 
              0.9673     0.9788     0.9887     0.9961     1.0000 
  Hrad:  
              0.0520     0.1049     0.1581     0.2128     0.2634 
              0.3153     0.3645     0.4169     0.4717     0.5234 
              0.5733     0.6198     0.6632     0.7039     0.7420 
              0.7779     0.8117     0.8435     0.8736     0.9021 
              0.9291     0.9548     0.9791     1.0023     1.0244 
              1.0455     1.0656     1.0843     1.1011     1.1167 
              1.1311     1.1444     1.1558     1.1652     1.1734 
              1.1815     1.1887     1.1940     1.1974     1.1998 
              1.1975     1.1942     1.1884     1.1802     1.1711 
              1.1553     1.1387     1.1131     1.0790     1.0000 
  Width: 
              0.3776     0.5286     0.6438     0.7229     0.8021 
              0.8646     0.9271     0.9667     0.9833     1.0000 
              1.0000     1.0000     1.0000     1.0000     1.0000 
              1.0000     1.0000     1.0000     1.0000     1.0000 
              1.0000     1.0000     1.0000     1.0000     1.0000 
              1.0000     1.0000     0.9937     0.9812     0.9688 
              0.9562     0.9437     0.9271     0.9062     0.8854 
              0.8687     0.8521     0.8312     0.8062     0.7812 
              0.7437     0.7062     0.6646     0.6187     0.5729 
              0.5104     0.4479     0.3620     0.2526     0.0000 

  Shape ARCH_96_96
  Area:  
              0.0059     0.0167     0.0309     0.0473     0.0656 
              0.0856     0.1072     0.1301     0.1536     0.1775 
              0.2016     0.2257     0.2497     0.2738     0.2979 
              0.3219     0.3460     0.3701     0.3942     0.4182 
              0.4423     0.4664     0.4904     0.5145     0.5386 
              0.5626     0.5867     0.6107     0.6345     0.6580 
              0.6812     0.7041     0.7267     0.7489     0.7706 
              0.7918     0.8126     0.8330     0.8528     0.8719 
              0.8903     0.9078     0.9243     0.9398     0.9541 
              0.9671     0.9786     0.9886     0.9961     1.0000 
  Hrad:  
              0.0510     0.1029     0.1550     0.2086     0.2583 
              0.3092     0.3575     0.4095     0.4642     0.5160 
              0.5659     0.6125     0.6562     0.6972     0.7357 
              0.7719     0.8061     0.8384     0.8690     0.8980 
              0.9255     0.9516     0.9765     1.0002     1.0228 
              1.0444     1.0650     1.0842     1.1016     1.1177 
              1.1327     1.1465     1.1585     1.1685     1.1773 
              1.1860     1.1938     1.1992     1.2020     1.2037 
              1.2019     1.1990     1.1930     1.1839     1.1738 
              1.1585     1.1423     1.1165     1.0814     1.0000 
  Width: 
              0.3750     0.5250     0.6400     0.7200     0.8000 
              0.8640     0.9280     0.9680     0.9840     1.0000 
              1.0000     1.0000     1.0000     1.0000     1.0000 
              1.0000     1.0000     1.0000     1.0000     1.0000 
              1.0000     1.0000     1.0000     1.0000     1.0000 
              1.0000     1.0000     0.9940     0.9820     0.9700 
              0.9580     0.9460     0.9300     0.9100     0.8900 
              0.8740     0.8580     0.8360     0.8080     0.7800 
              0.7440     0.7080     0.6660     0.6180     0.5700 
              0.5100     0.4500     0.3650     0.2550     0.0000 
  
  
  ****************
  Analysis Options
  ****************
  Flow Units ............... MGD
  Process Models:
    Rainfall/Runoff ........ YES
    RDII ................... YES
    Snowmelt ............... YES
    Groundwater ............ NO
    Flow Routing ........... YES
    Ponding Allowed ........ YES
    Water Quality .......... NO
  Infiltration Method ...... HORTON
  Flow Routing Method ...... DYNWAVE
  Surcharge Method ......... EXTRAN
  Starting Date ............ 12/09/2008 00:00:00
  Ending Date .............. 12/18/2008 00:00:00
  Antecedent Dry Days ...... 0.0
  Report Time Step ......... 00:15:00
  Wet Time Step ............ 00:01:00
  Dry Time Step ............ 00:05:00
  Routing Time Step ........ 30.00 sec
  Variable Time Step ....... YES
  Maximum Trials ........... 8
  Number of Threads ........ 1
  Head Tolerance ........... 0.005000 ft
  
  
  *********************
  Rainfall File Summary
  *********************
  Station    First        Last         Recording   Periods    Periods    Periods
  ID         Date         Date         Frequency  w/Precip    Missing    Malfunc.
  -------------------------------------------------------------------------------
  
  
  ERROR 317: cannot open rainfall data file d:\pwsa\ExtUA-Rain_07132009.dat.

  Analysis begun on:  Wed Jun 24 14:55:34 2026
  Analysis ended on:  Wed Jun 24 14:55:34 2026
  Total elapsed time: < 1 sec