
  EPA STORM WATER MANAGEMENT MODEL - VERSION 5.2 (Build 5.2.4)
  ------------------------------------------------------------

  WARNING 03: negative offset ignored for Link CDT-1047
  WARNING 03: negative offset ignored for Link CDT-1177
  WARNING 03: negative offset ignored for Link CDT-1311
  WARNING 03: negative offset ignored for Link CDT-1319
  WARNING 03: negative offset ignored for Link CDT-1327
  WARNING 03: negative offset ignored for Link CDT-1327
  WARNING 03: negative offset ignored for Link CDT-1329
  WARNING 03: negative offset ignored for Link CDT-1357
  WARNING 03: negative offset ignored for Link CDT-1359
  WARNING 03: negative offset ignored for Link CDT-1359
  WARNING 03: negative offset ignored for Link CDT-1361
  WARNING 03: negative offset ignored for Link CDT-1365
  WARNING 03: negative offset ignored for Link CDT-1375
  WARNING 03: negative offset ignored for Link CDT-1377
  WARNING 03: negative offset ignored for Link CDT-1377
  WARNING 03: negative offset ignored for Link CDT-1381
  WARNING 03: negative offset ignored for Link CDT-1397
  WARNING 03: negative offset ignored for Link CDT-1399
  WARNING 03: negative offset ignored for Link CDT-1411
  WARNING 03: negative offset ignored for Link CDT-1419
  WARNING 03: negative offset ignored for Link CDT-1421
  WARNING 03: negative offset ignored for Link CDT-1421
  WARNING 03: negative offset ignored for Link CDT-1423
  WARNING 03: negative offset ignored for Link CDT-1425
  WARNING 03: negative offset ignored for Link CDT-1427
  WARNING 03: negative offset ignored for Link CDT-1433
  WARNING 03: negative offset ignored for Link CDT-1449
  WARNING 03: negative offset ignored for Link CDT-1473
  WARNING 03: negative offset ignored for Link CDT-1527
  WARNING 03: negative offset ignored for Link CDT-1543
  WARNING 04: minimum elevation drop used for Conduit CDT-1693
  WARNING 03: negative offset ignored for Link CDT-1785
  WARNING 03: negative offset ignored for Link CDT-1787
  WARNING 03: negative offset ignored for Link CDT-1815
  WARNING 03: negative offset ignored for Link CDT-1817
  WARNING 03: negative offset ignored for Link CDT-1825
  WARNING 03: negative offset ignored for Link CDT-1891
  WARNING 03: negative offset ignored for Link CDT-1921
  WARNING 03: negative offset ignored for Link CDT-1981
  WARNING 03: negative offset ignored for Link CDT-1993
  WARNING 03: negative offset ignored for Link CDT-2027
  WARNING 03: negative offset ignored for Link CDT-2051
  WARNING 03: negative offset ignored for Link CDT-2053
  WARNING 03: negative offset ignored for Link CDT-2055
  WARNING 03: negative offset ignored for Link CDT-2057
  WARNING 03: negative offset ignored for Link CDT-2133
  WARNING 03: negative offset ignored for Link CDT-2133
  WARNING 03: negative offset ignored for Link CDT-2137
  WARNING 03: negative offset ignored for Link CDT-2139
  WARNING 03: negative offset ignored for Link CDT-2167
  WARNING 03: negative offset ignored for Link CDT-2169
  WARNING 03: negative offset ignored for Link CDT-2183
  WARNING 03: negative offset ignored for Link CDT-2201
  WARNING 03: negative offset ignored for Link CDT-2205
  WARNING 03: negative offset ignored for Link CDT-2235
  WARNING 03: negative offset ignored for Link CDT-2237
  WARNING 03: negative offset ignored for Link CDT-2239
  WARNING 03: negative offset ignored for Link CDT-2239
  WARNING 04: minimum elevation drop used for Conduit CDT-2239
  WARNING 03: negative offset ignored for Link CDT-2241
  WARNING 03: negative offset ignored for Link CDT-2243
  WARNING 03: negative offset ignored for Link CDT-2249
  WARNING 03: negative offset ignored for Link CDT-2279
  WARNING 03: negative offset ignored for Link CDT-2281
  WARNING 03: negative offset ignored for Link CDT-2317
  WARNING 03: negative offset ignored for Link CDT-2335
  WARNING 03: negative offset ignored for Link CDT-2361
  WARNING 03: negative offset ignored for Link CDT-2367
  WARNING 03: negative offset ignored for Link CDT-2497
  WARNING 03: negative offset ignored for Link CDT-2501
  WARNING 03: negative offset ignored for Link CDT-2535
  WARNING 03: negative offset ignored for Link CDT-2541
  WARNING 03: negative offset ignored for Link CDT-2555
  WARNING 03: negative offset ignored for Link CDT-2557
  WARNING 03: negative offset ignored for Link CDT-2583
  WARNING 03: negative offset ignored for Link CDT-2585
  WARNING 03: negative offset ignored for Link CDT-2627
  WARNING 03: negative offset ignored for Link CDT-2677
  WARNING 03: negative offset ignored for Link CDT-2693
  WARNING 03: negative offset ignored for Link CDT-2751
  WARNING 03: negative offset ignored for Link CDT-2751
  WARNING 03: negative offset ignored for Link CDT-2753
  WARNING 03: negative offset ignored for Link CDT-2753
  WARNING 03: negative offset ignored for Link CDT-2755
  WARNING 03: negative offset ignored for Link CDT-2769
  WARNING 03: negative offset ignored for Link CDT-2769
  WARNING 03: negative offset ignored for Link CDT-2771
  WARNING 03: negative offset ignored for Link CDT-2773
  WARNING 03: negative offset ignored for Link CDT-2773
  WARNING 03: negative offset ignored for Link CDT-2775
  WARNING 03: negative offset ignored for Link CDT-2843
  WARNING 04: minimum elevation drop used for Conduit CDT-2863
  WARNING 04: minimum elevation drop used for Conduit CDT-2881
  WARNING 03: negative offset ignored for Link CDT-2939
  WARNING 03: negative offset ignored for Link CDT-2943
  WARNING 03: negative offset ignored for Link CDT-3003
  WARNING 03: negative offset ignored for Link CDT-3005
  WARNING 03: negative offset ignored for Link CDT-301
  WARNING 03: negative offset ignored for Link CDT-3055
  WARNING 03: negative offset ignored for Link CDT-3085
  WARNING 03: negative offset ignored for Link CDT-3099
  WARNING 03: negative offset ignored for Link CDT-3107
  WARNING 03: negative offset ignored for Link CDT-3127
  WARNING 03: negative offset ignored for Link CDT-3135
  WARNING 03: negative offset ignored for Link CDT-3147
  WARNING 03: negative offset ignored for Link CDT-3185
  WARNING 03: negative offset ignored for Link CDT-3185
  WARNING 04: minimum elevation drop used for Conduit CDT-3185
  WARNING 03: negative offset ignored for Link CDT-3187
  WARNING 03: negative offset ignored for Link CDT-3207
  WARNING 03: negative offset ignored for Link CDT-3227
  WARNING 03: negative offset ignored for Link CDT-3229
  WARNING 03: negative offset ignored for Link CDT-3259
  WARNING 04: minimum elevation drop used for Conduit CDT-3259
  WARNING 03: negative offset ignored for Link CDT-3261
  WARNING 03: negative offset ignored for Link CDT-3313
  WARNING 03: negative offset ignored for Link CDT-3315
  WARNING 04: minimum elevation drop used for Conduit CDT-3321
  WARNING 03: negative offset ignored for Link CDT-3327
  WARNING 03: negative offset ignored for Link CDT-3329
  WARNING 03: negative offset ignored for Link CDT-3383
  WARNING 03: negative offset ignored for Link CDT-3393
  WARNING 03: negative offset ignored for Link CDT-3395
  WARNING 03: negative offset ignored for Link CDT-3417
  WARNING 03: negative offset ignored for Link CDT-343
  WARNING 03: negative offset ignored for Link CDT-3495
  WARNING 03: negative offset ignored for Link CDT-3497
  WARNING 03: negative offset ignored for Link CDT-3547
  WARNING 03: negative offset ignored for Link CDT-3553
  WARNING 03: negative offset ignored for Link CDT-3555
  WARNING 04: minimum elevation drop used for Conduit CDT-3555
  WARNING 03: negative offset ignored for Link CDT-3557
  WARNING 03: negative offset ignored for Link CDT-3567
  WARNING 04: minimum elevation drop used for Conduit CDT-3567
  WARNING 03: negative offset ignored for Link CDT-3569
  WARNING 03: negative offset ignored for Link CDT-3593
  WARNING 03: negative offset ignored for Link CDT-3599
  WARNING 03: negative offset ignored for Link CDT-3605
  WARNING 03: negative offset ignored for Link CDT-3651
  WARNING 03: negative offset ignored for Link CDT-3715
  WARNING 03: negative offset ignored for Link CDT-3741
  WARNING 03: negative offset ignored for Link CDT-3777
  WARNING 03: negative offset ignored for Link CDT-3801
  WARNING 03: negative offset ignored for Link CDT-3811
  WARNING 03: negative offset ignored for Link CDT-3827
  WARNING 03: negative offset ignored for Link CDT-3833
  WARNING 03: negative offset ignored for Link CDT-3849
  WARNING 03: negative offset ignored for Link CDT-3857
  WARNING 03: negative offset ignored for Link CDT-3913
  WARNING 03: negative offset ignored for Link CDT-3915
  WARNING 03: negative offset ignored for Link CDT-3945
  WARNING 03: negative offset ignored for Link CDT-3945
  WARNING 03: negative offset ignored for Link CDT-3947
  WARNING 03: negative offset ignored for Link CDT-3947
  WARNING 03: negative offset ignored for Link CDT-3949
  WARNING 03: negative offset ignored for Link CDT-3975
  WARNING 03: negative offset ignored for Link CDT-3999
  WARNING 03: negative offset ignored for Link CDT-4005
  WARNING 03: negative offset ignored for Link CDT-4007
  WARNING 03: negative offset ignored for Link CDT-4011
  WARNING 03: negative offset ignored for Link CDT-4021
  WARNING 03: negative offset ignored for Link CDT-4035
  WARNING 03: negative offset ignored for Link CDT-4043
  WARNING 04: minimum elevation drop used for Conduit CDT-4055
  WARNING 03: negative offset ignored for Link CDT-4073
  WARNING 03: negative offset ignored for Link CDT-4081
  WARNING 03: negative offset ignored for Link CDT-4089
  WARNING 03: negative offset ignored for Link CDT-4091
  WARNING 03: negative offset ignored for Link CDT-4121
  WARNING 03: negative offset ignored for Link CDT-4187
  WARNING 03: negative offset ignored for Link CDT-4249
  WARNING 03: negative offset ignored for Link CDT-4261
  WARNING 03: negative offset ignored for Link CDT-4261
  WARNING 03: negative offset ignored for Link CDT-4265
  WARNING 03: negative offset ignored for Link CDT-4301
  WARNING 03: negative offset ignored for Link CDT-4303
  WARNING 03: negative offset ignored for Link CDT-4307
  WARNING 04: minimum elevation drop used for Conduit CDT-4331
  WARNING 03: negative offset ignored for Link CDT-4347
  WARNING 03: negative offset ignored for Link CDT-4355
  WARNING 03: negative offset ignored for Link CDT-4405
  WARNING 03: negative offset ignored for Link CDT-4407
  WARNING 03: negative offset ignored for Link CDT-4411
  WARNING 03: negative offset ignored for Link CDT-4419
  WARNING 03: negative offset ignored for Link CDT-4421
  WARNING 03: negative offset ignored for Link CDT-4423
  WARNING 03: negative offset ignored for Link CDT-4473
  WARNING 03: negative offset ignored for Link CDT-4477
  WARNING 03: negative offset ignored for Link CDT-4521
  WARNING 03: negative offset ignored for Link CDT-4523
  WARNING 03: negative offset ignored for Link CDT-4525
  WARNING 03: negative offset ignored for Link CDT-4537
  WARNING 03: negative offset ignored for Link CDT-4539
  WARNING 03: negative offset ignored for Link CDT-4541
  WARNING 03: negative offset ignored for Link CDT-4543
  WARNING 03: negative offset ignored for Link CDT-4581
  WARNING 03: negative offset ignored for Link CDT-4583
  WARNING 03: negative offset ignored for Link CDT-4601
  WARNING 03: negative offset ignored for Link CDT-4621
  WARNING 03: negative offset ignored for Link CDT-4673
  WARNING 03: negative offset ignored for Link CDT-4675
  WARNING 03: negative offset ignored for Link CDT-4737
  WARNING 03: negative offset ignored for Link CDT-4753
  WARNING 03: negative offset ignored for Link CDT-4799
  WARNING 04: minimum elevation drop used for Conduit CDT-4865
  WARNING 03: negative offset ignored for Link CDT-4903
  WARNING 03: negative offset ignored for Link CDT-4905
  WARNING 03: negative offset ignored for Link CDT-4907
  WARNING 03: negative offset ignored for Link CDT-4945
  WARNING 03: negative offset ignored for Link CDT-4975
  WARNING 03: negative offset ignored for Link CDT-4979
  WARNING 03: negative offset ignored for Link CDT-5013
  WARNING 03: negative offset ignored for Link CDT-5035
  WARNING 03: negative offset ignored for Link CDT-5041
  WARNING 03: negative offset ignored for Link CDT-5043
  WARNING 03: negative offset ignored for Link CDT-5045
  WARNING 03: negative offset ignored for Link CDT-5049
  WARNING 03: negative offset ignored for Link CDT-5055
  WARNING 03: negative offset ignored for Link CDT-5057
  WARNING 03: negative offset ignored for Link CDT-5057
  WARNING 03: negative offset ignored for Link CDT-5073
  WARNING 03: negative offset ignored for Link CDT-5127
  WARNING 03: negative offset ignored for Link CDT-5139
  WARNING 03: negative offset ignored for Link CDT-5143
  WARNING 03: negative offset ignored for Link CDT-5243
  WARNING 03: negative offset ignored for Link CDT-5263
  WARNING 03: negative offset ignored for Link CDT-528
  WARNING 03: negative offset ignored for Link CDT-5281
  WARNING 03: negative offset ignored for Link CDT-5315
  WARNING 03: negative offset ignored for Link CDT-5317
  WARNING 03: negative offset ignored for Link CDT-5363
  WARNING 03: negative offset ignored for Link CDT-540
  WARNING 03: negative offset ignored for Link CDT-5427
  WARNING 03: negative offset ignored for Link CDT-5429
  WARNING 03: negative offset ignored for Link CDT-5445
  WARNING 03: negative offset ignored for Link CDT-5481
  WARNING 03: negative offset ignored for Link CDT-5517
  WARNING 03: negative offset ignored for Link CDT-5519
  WARNING 03: negative offset ignored for Link CDT-5531
  WARNING 03: negative offset ignored for Link CDT-5541
  WARNING 03: negative offset ignored for Link CDT-5543
  WARNING 03: negative offset ignored for Link CDT-5555
  WARNING 03: negative offset ignored for Link CDT-5597
  WARNING 03: negative offset ignored for Link CDT-5613
  WARNING 04: minimum elevation drop used for Conduit CDT-5613
  WARNING 03: negative offset ignored for Link CDT-5641
  WARNING 03: negative offset ignored for Link CDT-5733
  WARNING 03: negative offset ignored for Link CDT-5733
  WARNING 03: negative offset ignored for Link CDT-5735
  WARNING 03: negative offset ignored for Link CDT-5751
  WARNING 03: negative offset ignored for Link CDT-5759
  WARNING 03: negative offset ignored for Link CDT-5761
  WARNING 03: negative offset ignored for Link CDT-5773
  WARNING 03: negative offset ignored for Link CDT-5875
  WARNING 03: negative offset ignored for Link CDT-5877
  WARNING 03: negative offset ignored for Link CDT-591
  WARNING 04: minimum elevation drop used for Conduit CDT-5963
  WARNING 03: negative offset ignored for Link CDT-5983
  WARNING 03: negative offset ignored for Link CDT-6037
  WARNING 03: negative offset ignored for Link CDT-6041
  WARNING 03: negative offset ignored for Link CDT-6073
  WARNING 03: negative offset ignored for Link CDT-6075
  WARNING 03: negative offset ignored for Link CDT-6087
  WARNING 03: negative offset ignored for Link CDT-6089
  WARNING 03: negative offset ignored for Link CDT-6101
  WARNING 03: negative offset ignored for Link CDT-6103
  WARNING 03: negative offset ignored for Link CDT-6105
  WARNING 03: negative offset ignored for Link CDT-6135
  WARNING 03: negative offset ignored for Link CDT-6137
  WARNING 03: negative offset ignored for Link CDT-6137
  WARNING 03: negative offset ignored for Link CDT-6139
  WARNING 03: negative offset ignored for Link CDT-6139
  WARNING 03: negative offset ignored for Link CDT-6141
  WARNING 03: negative offset ignored for Link CDT-6141
  WARNING 03: negative offset ignored for Link CDT-6143
  WARNING 03: negative offset ignored for Link CDT-6143
  WARNING 03: negative offset ignored for Link CDT-6145
  WARNING 03: negative offset ignored for Link CDT-6155
  WARNING 03: negative offset ignored for Link CDT-616
  WARNING 03: negative offset ignored for Link CDT-6195
  WARNING 03: negative offset ignored for Link CDT-622
  WARNING 03: negative offset ignored for Link CDT-622
  WARNING 03: negative offset ignored for Link CDT-6221
  WARNING 03: negative offset ignored for Link CDT-6221
  WARNING 03: negative offset ignored for Link CDT-6223
  WARNING 03: negative offset ignored for Link CDT-6227
  WARNING 03: negative offset ignored for Link CDT-624
  WARNING 03: negative offset ignored for Link CDT-624
  WARNING 03: negative offset ignored for Link CDT-6255
  WARNING 03: negative offset ignored for Link CDT-6257
  WARNING 03: negative offset ignored for Link CDT-6257
  WARNING 03: negative offset ignored for Link CDT-6259
  WARNING 03: negative offset ignored for Link CDT-630
  WARNING 03: negative offset ignored for Link CDT-630
  WARNING 03: negative offset ignored for Link CDT-632
  WARNING 03: negative offset ignored for Link CDT-6343
  WARNING 03: negative offset ignored for Link CDT-6371
  WARNING 03: negative offset ignored for Link CDT-6389
  WARNING 03: negative offset ignored for Link CDT-6391
  WARNING 03: negative offset ignored for Link CDT-6393
  WARNING 03: negative offset ignored for Link CDT-6413
  WARNING 03: negative offset ignored for Link CDT-644
  WARNING 03: negative offset ignored for Link CDT-644
  WARNING 03: negative offset ignored for Link CDT-6443
  WARNING 03: negative offset ignored for Link CDT-6445
  WARNING 03: negative offset ignored for Link CDT-646
  WARNING 03: negative offset ignored for Link CDT-6499
  WARNING 03: negative offset ignored for Link CDT-6511
  WARNING 03: negative offset ignored for Link CDT-6511
  WARNING 03: negative offset ignored for Link CDT-6513
  WARNING 03: negative offset ignored for Link CDT-6517
  WARNING 03: negative offset ignored for Link CDT-6519
  WARNING 03: negative offset ignored for Link CDT-6521
  WARNING 03: negative offset ignored for Link CDT-6545
  WARNING 03: negative offset ignored for Link CDT-660
  WARNING 03: negative offset ignored for Link CDT-6603
  WARNING 03: negative offset ignored for Link CDT-6631
  WARNING 03: negative offset ignored for Link CDT-6691
  WARNING 03: negative offset ignored for Link CDT-6703
  WARNING 03: negative offset ignored for Link CDT-6705
  WARNING 03: negative offset ignored for Link CDT-6715
  WARNING 03: negative offset ignored for Link CDT-6717
  WARNING 03: negative offset ignored for Link CDT-6719
  WARNING 03: negative offset ignored for Link CDT-6721
  WARNING 03: negative offset ignored for Link CDT-6743
  WARNING 04: minimum elevation drop used for Conduit CDT-6755
  WARNING 04: minimum elevation drop used for Conduit CDT-6771
  WARNING 03: negative offset ignored for Link CDT-6773
  WARNING 03: negative offset ignored for Link CDT-6775
  WARNING 03: negative offset ignored for Link CDT-6817
  WARNING 03: negative offset ignored for Link CDT-6817
  WARNING 03: negative offset ignored for Link CDT-6819
  WARNING 03: negative offset ignored for Link CDT-6859
  WARNING 03: negative offset ignored for Link CDT-6923
  WARNING 03: negative offset ignored for Link CDT-6925
  WARNING 03: negative offset ignored for Link CDT-6927
  WARNING 03: negative offset ignored for Link CDT-6933
  WARNING 03: negative offset ignored for Link CDT-696
  WARNING 03: negative offset ignored for Link CDT-698
  WARNING 03: negative offset ignored for Link CDT-6983
  WARNING 03: negative offset ignored for Link CDT-6987
  WARNING 03: negative offset ignored for Link CDT-7055
  WARNING 03: negative offset ignored for Link CDT-7127
  WARNING 03: negative offset ignored for Link CDT-7127
  WARNING 04: minimum elevation drop used for Conduit CDT-7127
  WARNING 04: minimum elevation drop used for Conduit CDT-7149
  WARNING 03: negative offset ignored for Link CDT-7151
  WARNING 03: negative offset ignored for Link CDT-7151
  WARNING 03: negative offset ignored for Link CDT-7161
  WARNING 03: negative offset ignored for Link CDT-7161
  WARNING 03: negative offset ignored for Link CDT-7163
  WARNING 03: negative offset ignored for Link CDT-723
  WARNING 03: negative offset ignored for Link CDT-7275
  WARNING 04: minimum elevation drop used for Conduit CDT-7426
  WARNING 03: negative offset ignored for Link CDT-7654
  WARNING 03: negative offset ignored for Link CDT-7656
  WARNING 03: negative offset ignored for Link CDT-799
  WARNING 03: negative offset ignored for Link CDT-835
  WARNING 03: negative offset ignored for Link CDT-847
  WARNING 03: negative offset ignored for Link CDT-959
  WARNING 03: negative offset ignored for Link CDT-959
  WARNING 03: negative offset ignored for Link CDT-961
  WARNING 03: negative offset ignored for Link CDT-967
  WARNING 03: negative offset ignored for Link CDT-977
  WARNING 03: negative offset ignored for Link CDT-977
  WARNING 03: negative offset ignored for Link CDT-979
  WARNING 03: negative offset ignored for Link CDT-979
  WARNING 03: negative offset ignored for Link CDT-981
  WARNING 03: negative offset ignored for Link CDT-983
  WARNING 03: negative offset ignored for Link CDT-983
  WARNING 03: negative offset ignored for Link CDT-985
  WARNING 03: negative offset ignored for Link CDT-987
  WARNING 03: negative offset ignored for Link CDT-987
  WARNING 03: negative offset ignored for Link CDT-989
  WARNING 03: negative offset ignored for Link CDT-989
  WARNING 03: negative offset ignored for Link CDT-991
  WARNING 03: negative offset ignored for Link CDT-991
  WARNING 03: negative offset ignored for Link CDT-993
  WARNING 02: maximum depth increased for Node JCT-312
  WARNING 02: maximum depth increased for Node JCT-32
  WARNING 02: maximum depth increased for Node JCT-3752
  WARNING 02: maximum depth increased for Node JCT-4324
  WARNING 02: maximum depth increased for Node JCT-4644
  WARNING 02: maximum depth increased for Node JCT-4780
  WARNING 02: maximum depth increased for Node JCT-5194
  WARNING 02: maximum depth increased for Node JCT-6704
  WARNING 02: maximum depth increased for Node JCT-6854
  WARNING 02: maximum depth increased for Node JCT-6894
  WARNING 02: maximum depth increased for Node JCT-779
  WARNING 02: maximum depth increased for Node JCT-877
  WARNING 02: maximum depth increased for Node JCT-879
  WARNING 02: maximum depth increased for Node JCT-881
  WARNING 02: maximum depth increased for Node JCT-883
  WARNING 02: maximum depth increased for Node JCT-885
  WARNING 02: maximum depth increased for Node JCT-897
  WARNING 02: maximum depth increased for Node JCT-899
  WARNING 02: maximum depth increased for Node JCT-901
  WARNING 02: maximum depth increased for Node JCT-903
  
  ****************
  Analysis Options
  ****************
  Flow Units ............... CFS
  Process Models:
    Rainfall/Runoff ........ YES
    RDII ................... YES
    Snowmelt ............... NO
    Groundwater ............ NO
    Flow Routing ........... YES
    Ponding Allowed ........ YES
    Water Quality .......... NO
  Infiltration Method ...... HORTON
  Flow Routing Method ...... DYNWAVE
  Surcharge Method ......... EXTRAN
  Starting Date ............ 04/27/2008 00:00:00
  Ending Date .............. 04/29/2008 00:00:00
  Antecedent Dry Days ...... 5.0
  Report Time Step ......... 00:05:00
  Wet Time Step ............ 00:05:00
  Dry Time Step ............ 01:00:00
  Routing Time Step ........ 10.00 sec
  Variable Time Step ....... YES
  Maximum Trials ........... 3
  Number of Threads ........ 1
  Head Tolerance ........... 0.005000 ft
  
  
  **********************           Volume        Volume
  Rainfall Dependent I/I        acre-feet      10^6 gal
  **********************        ---------     ---------
  Sewershed Rainfall ......     65394.960     21309.925
  RDII Produced ...........       115.023        37.482
  RDII Ratio ..............         0.002
  
  
  **************************        Volume         Depth
  Runoff Quantity Continuity     acre-feet        inches
  **************************     ---------       -------
  Total Precipitation ......       375.207         1.140
  Evaporation Loss .........         0.000         0.000
  Infiltration Loss ........       187.525         0.570
  Surface Runoff ...........        50.024         0.152
  Final Storage ............       137.778         0.419
  Continuity Error (%) .....        -0.032
  
  
  **************************        Volume        Volume
  Flow Routing Continuity        acre-feet      10^6 gal
  **************************     ---------     ---------
  Dry Weather Inflow .......        43.449        14.158
  Wet Weather Inflow .......        49.747        16.211
  Groundwater Inflow .......         0.000         0.000
  RDII Inflow ..............       114.676        37.369
  External Inflow ..........       151.598        49.401
  External Outflow .........       346.073       112.773
  Flooding Loss ............         3.931         1.281
  Evaporation Loss .........         0.000         0.000
  Exfiltration Loss ........         0.000         0.000
  Initial Stored Volume ....         0.000         0.000
  Final Stored Volume ......         9.921         3.233
  Continuity Error (%) .....        -0.126
  
  
  *************************
  Highest Continuity Errors
  *************************
  Node JCT-4900 (-123.38%)
  Node JCT-4904 (-95.55%)
  Node JCT-4902 (-20.86%)
  Node JCT-5144 (13.10%)
  Node JCT-304 (12.61%)
  
  
  ***************************
  Time-Step Critical Elements
  ***************************
  Link CDT-4675 (7.45%)
  Link CDT-2813 (3.35%)
  Link CDT-1971 (2.29%)
  Link CDT-1981 (2.04%)
  Link CDT-2693 (1.92%)
  
  
  ********************************
  Highest Flow Instability Indexes
  ********************************
  Link CDT-4679 (73)
  Link CDT-4677 (70)
  Link CDT-7436 (67)
  Link CDT-4675 (64)
  Link CDT-7424 (46)
  
  
  *********************************
  Most Frequent Nonconverging Nodes
  *********************************
  Node JCT-522 (86.38%)
  Node OFALL-10 (86.38%)
  Node OFALL-36 (86.38%)
  Node OFALL-56 (86.38%)
  Node OFALL-58 (86.38%)
  
  
  *************************
  Routing Time Step Summary
  *************************
  Minimum Time Step           :     0.26 sec
  Average Time Step           :     7.34 sec
  Maximum Time Step           :    10.00 sec
  % of Time in Steady State   :     0.00
  Average Iterations per Step :     2.87
  % of Steps Not Converging   :    86.38
  Time Step Frequencies       :
     10.000 -  1.585 sec      :    94.62 %
      1.585 -  0.251 sec      :     5.38 %
      0.251 -  0.040 sec      :     0.00 %
      0.040 -  0.006 sec      :     0.00 %
      0.006 -  0.001 sec      :     0.00 %
  
  
  ***************************
  Subcatchment Runoff Summary
  ***************************
  
  ------------------------------------------------------------------------------------------------------------------------------
                            Total      Total      Total      Total     Imperv       Perv      Total       Total     Peak  Runoff
                           Precip      Runon       Evap      Infil     Runoff     Runoff     Runoff      Runoff   Runoff   Coeff
  Subcatchment                 in         in         in         in         in         in         in    10^6 gal      CFS
  ------------------------------------------------------------------------------------------------------------------------------
  0                          1.14       0.00       0.00       0.77       0.27       0.00       0.00        0.00     0.00   0.000
  1                          1.14       0.00       0.00       0.46       0.32       0.00       0.32        0.47     2.68   0.281
  10                         1.14       0.00       0.00       0.26       0.17       0.00       0.17        0.38     2.39   0.151
  11                         1.14       0.00       0.00       0.76       0.22       0.00       0.00        0.00     0.00   0.000
  12                         1.14       0.00       0.00       0.91       0.17       0.00       0.00        0.00     0.00   0.000
  13                         1.14       0.00       0.00       0.62       0.18       0.00       0.00        0.00     0.00   0.000
  14                         1.14       0.00       0.00       0.72       0.16       0.00       0.00        0.00     0.00   0.000
  16                         1.14       0.00       0.00       0.83       0.33       0.00       0.00        0.00     0.00   0.000
  17                         1.14       0.00       0.00       1.07       0.11       0.00       0.00        0.00     0.00   0.000
  18                         1.14       0.00       0.00       0.97       0.34       0.00       0.00        0.00     0.00   0.000
  19                         1.14       0.00       0.00       0.90       0.32       0.00       0.00        0.00     0.00   0.000
  2                          1.14       0.00       0.00       0.52       0.27       0.00       0.27        0.44     2.54   0.238
  20                         1.14       0.00       0.00       0.88       0.25       0.00       0.00        0.00     0.00   0.000
  21                         1.14       0.00       0.00       0.93       0.34       0.00       0.00        0.00     0.00   0.000
  22                         1.14       0.00       0.00       0.58       0.31       0.00       0.31        0.26     1.45   0.276
  23                         1.14       0.00       0.00       0.62       0.28       0.00       0.28        0.35     1.99   0.247
  24                         1.14       0.00       0.00       0.53       0.36       0.00       0.36        0.22     1.26   0.312
  25                         1.14       0.00       0.00       0.42       0.35       0.00       0.35        0.38     2.18   0.303
  26                         1.14       0.00       0.00       0.19       0.38       0.00       0.38        0.40     2.28   0.335
  27                         1.14       0.00       0.00       0.46       0.42       0.00       0.42        0.20     1.14   0.367
  28                         1.14       0.00       0.00       0.41       0.31       0.00       0.31        0.38     2.20   0.272
  29                         1.14       0.00       0.00       0.34       0.32       0.00       0.32        0.37     2.12   0.279
  3                          1.14       0.00       0.00       0.62       0.31       0.00       0.31        0.32     1.81   0.270
  30                         1.14       0.00       0.00       0.47       0.23       0.00       0.23        0.35     1.99   0.202
  31                         1.14       0.00       0.00       0.32       0.22       0.00       0.22        0.39     2.36   0.193
  32                         1.14       0.00       0.00       0.16       0.15       0.00       0.15        0.46     3.00   0.128
  33                         1.14       0.00       0.00       0.26       0.21       0.00       0.21        0.41     2.50   0.186
  34                         1.14       0.00       0.00       0.74       0.28       0.00       0.00        0.00     0.00   0.000
  35                         1.14       0.00       0.00       0.58       0.29       0.00       0.29        0.32     1.85   0.251
  36                         1.14       0.00       0.00       0.42       0.27       0.00       0.27        0.49     2.80   0.233
  37                         1.14       0.00       0.00       0.90       0.30       0.00       0.00        0.00     0.00   0.000
  38                         1.14       0.00       0.00       0.27       0.45       0.00       0.45        0.34     1.91   0.394
  39                         1.14       0.00       0.00       0.23       0.26       0.00       0.26        0.41     2.41   0.225
  4                          1.14       0.00       0.00       0.30       0.25       0.00       0.25        0.41     2.39   0.220
  40                         1.14       0.00       0.00       0.49       0.25       0.00       0.25        0.31     1.78   0.219
  41                         1.14       0.00       0.00       0.20       0.37       0.00       0.37        0.29     1.64   0.321
  42                         1.14       0.00       0.00       0.37       0.17       0.00       0.17        0.41     2.51   0.150
  43                         1.14       0.00       0.00       0.37       0.13       0.00       0.13        0.43     2.80   0.110
  44                         1.14       0.00       0.00       0.61       0.26       0.00       0.00        0.00     0.00   0.000
  45                         1.14       0.00       0.00       0.27       0.31       0.00       0.31        0.34     1.94   0.273
  46                         1.14       0.00       0.00       0.62       0.32       0.00       0.32        0.16     0.92   0.282
  47                         1.14       0.00       0.00       0.41       0.22       0.00       0.22        0.41     2.40   0.189
  48                         1.14       0.00       0.00       0.57       0.14       0.00       0.14        0.50     3.04   0.120
  49                         1.14       0.00       0.00       0.51       0.19       0.00       0.00        0.00     0.00   0.000
  5                          1.14       0.00       0.00       0.35       0.19       0.00       0.19        0.40     2.45   0.170
  50                         1.14       0.00       0.00       0.89       0.20       0.00       0.00        0.00     0.00   0.000
  51                         1.14       0.00       0.00       0.91       0.21       0.00       0.00        0.00     0.00   0.000
  52                         1.14       0.00       0.00       0.98       0.20       0.00       0.00        0.00     0.00   0.000
  53                         1.14       0.00       0.00       0.48       0.47       0.00       0.47        0.07     0.43   0.412
  54                         1.14       0.00       0.00       0.49       0.32       0.00       0.32        0.29     1.63   0.282
  55                         1.14       0.00       0.00       0.53       0.39       0.00       0.39        0.14     0.81   0.345
  56                         1.14       0.00       0.00       0.90       0.43       0.00       0.00        0.00     0.00   0.000
  57                         1.14       0.00       0.00       0.45       0.37       0.00       0.37        0.22     1.27   0.323
  58                         1.14       0.00       0.00       0.48       0.38       0.00       0.38        0.25     1.40   0.335
  59                         1.14       0.00       0.00       0.26       0.33       0.00       0.33        0.48     2.73   0.289
  6                          1.14       0.00       0.00       0.29       0.39       0.00       0.39        0.31     1.80   0.341
  60                         1.14       0.00       0.00       0.78       0.22       0.00       0.22        0.19     1.08   0.194
  61                         1.14       0.00       0.00       0.96       0.22       0.00       0.00        0.00     0.00   0.000
  62                         1.14       0.00       0.00       0.81       0.52       0.00       0.00        0.00     0.00   0.000
  63                         1.14       0.00       0.00       0.35       0.33       0.00       0.33        0.27     1.52   0.290
  64                         1.14       0.00       0.00       0.34       0.36       0.00       0.36        0.17     0.95   0.315
  65                         1.14       0.00       0.00       1.00       0.26       0.00       0.00        0.00     0.00   0.000
  66                         1.14       0.00       0.00       0.91       0.33       0.00       0.00        0.00     0.00   0.000
  67                         1.14       0.00       0.00       0.98       0.18       0.00       0.00        0.00     0.00   0.000
  68                         1.14       0.00       0.00       0.81       0.26       0.00       0.00        0.00     0.00   0.000
  69                         1.14       0.00       0.00       0.62       0.24       0.00       0.00        0.00     0.00   0.000
  7                          1.14       0.00       0.00       0.56       0.19       0.00       0.19        0.46     2.64   0.165
  70                         1.14       0.00       0.00       0.83       0.31       0.00       0.00        0.00     0.00   0.000
  71                         1.14       0.00       0.00       0.95       0.37       0.00       0.00        0.00     0.00   0.000
  72                         1.14       0.00       0.00       0.42       0.37       0.00       0.37        0.36     2.03   0.326
  73                         1.14       0.00       0.00       0.30       0.25       0.00       0.25        0.35     2.06   0.217
  74                         1.14       0.00       0.00       0.69       0.31       0.00       0.00        0.00     0.00   0.000
  75                         1.14       0.00       0.00       0.71       0.29       0.00       0.29        0.18     1.07   0.253
  76                         1.14       0.00       0.00       0.57       0.28       0.00       0.28        0.30     1.70   0.246
  77                         1.14       0.00       0.00       1.00       0.28       0.00       0.00        0.00     0.00   0.000
  78                         1.14       0.00       0.00       0.58       0.32       0.00       0.32        0.32     1.81   0.280
  79                         1.14       0.00       0.00       0.23       0.44       0.00       0.44        0.28     1.57   0.384
  80                         1.14       0.00       0.00       0.08       0.36       0.00       0.36        0.25     1.41   0.312
  81                         1.14       0.00       0.00       0.25       0.36       0.00       0.36        0.25     1.45   0.317
  82                         1.14       0.00       0.00       0.37       0.43       0.00       0.43        0.20     1.14   0.376
  83                         1.14       0.00       0.00       0.94       0.34       0.00       0.00        0.00     0.00   0.000
  84                         1.14       0.00       0.00       0.76       0.38       0.00       0.00        0.00     0.00   0.000
  9                          1.14       0.00       0.00       0.87       0.21       0.00       0.00        0.00     0.00   0.000
  
  
  ******************
  Node Depth Summary
  ******************
  
  ---------------------------------------------------------------------------------
                                 Average  Maximum  Maximum  Time of Max    Reported
                                   Depth    Depth      HGL   Occurrence   Max Depth
  Node                 Type         Feet     Feet     Feet  days hr:min        Feet
  ---------------------------------------------------------------------------------
  JCT-01               JUNCTION     0.03     0.03    47.33     1  13:46        0.03
  JCT-10               JUNCTION     0.02     0.02    54.85     1  08:44        0.02
  JCT-100              JUNCTION     0.13     0.13    20.13     0  14:00        0.13
  JCT-1001             JUNCTION     0.07     0.25    44.25     1  14:50        0.25
  JCT-1002             JUNCTION     0.03     0.03   151.03     1  13:31        0.03
  JCT-1003             JUNCTION     0.16     0.60    43.60     1  14:50        0.60
  JCT-1004             JUNCTION     0.05     0.05   152.05     1  13:30        0.05
  JCT-1005             JUNCTION     0.05     0.18    47.52     1  14:50        0.18
  JCT-1006             JUNCTION     0.04     0.04   158.12     1  13:28        0.04
  JCT-1007             JUNCTION     0.01     0.02   152.82     0  14:00        0.02
  JCT-1008             JUNCTION     0.03     0.03   166.86     1  13:24        0.03
  JCT-1009             JUNCTION     0.02     0.02   150.52     0  14:00        0.02
  JCT-1010             JUNCTION     0.03     0.03   185.09     1  13:40        0.03
  JCT-1011             JUNCTION     0.05     0.06   146.56     0  14:00        0.06
  JCT-1012             JUNCTION     0.04     0.04   183.24     0  13:59        0.04
  JCT-1014             JUNCTION     0.03     0.03   182.03     0  13:58        0.03
  JCT-1016             JUNCTION     0.03     0.03   170.03     0  13:57        0.03
  JCT-1017             JUNCTION     0.03     0.03   141.03     0  14:00        0.03
  JCT-1018             JUNCTION     0.02     0.02   175.02     1  13:56        0.02
  JCT-1019             JUNCTION     0.03     0.04   143.04     0  14:00        0.04
  JCT-102              JUNCTION     0.18     0.19    19.69     0  14:00        0.19
  JCT-1020             JUNCTION     0.02     0.02   179.74     1  13:10        0.02
  JCT-1021             JUNCTION     0.04     0.05   142.05     0  14:00        0.05
  JCT-1022             JUNCTION     0.02     0.02   182.82     0  14:00        0.02
  JCT-1024             JUNCTION     0.03     0.03   170.78     1  13:16        0.03
  JCT-1026             JUNCTION     0.22     0.45   142.30     1  21:01        0.45
  JCT-1027             JUNCTION     0.06     0.06   140.56     0  14:00        0.06
  JCT-1028             JUNCTION     0.04     0.05   154.85     0  14:00        0.05
  JCT-1029             JUNCTION     0.05     0.05   141.05     0  14:00        0.05
  JCT-1030             JUNCTION     0.15     0.31   149.16     1  21:00        0.31
  JCT-1031             JUNCTION     0.02     0.02   149.52     0  13:42        0.02
  JCT-1032             JUNCTION     0.18     0.39   152.39     1  21:00        0.39
  JCT-1033             JUNCTION     0.02     0.02   146.52     0  14:00        0.02
  JCT-1034             JUNCTION     0.07     0.07   159.22     0  14:00        0.07
  JCT-1035             JUNCTION     0.02     0.02   142.52     0  14:00        0.02
  JCT-1036             JUNCTION     0.03     0.03   183.88     1  14:00        0.03
  JCT-1037             JUNCTION     0.03     0.03   134.53     0  14:00        0.03
  JCT-1038             JUNCTION     0.03     0.03   165.03     0  13:59        0.03
  JCT-104              JUNCTION     0.14     0.15    19.15     0  14:02        0.15
  JCT-1040             JUNCTION     0.09     0.10   160.23     0  14:00        0.10
  JCT-1041             JUNCTION     0.06     0.06   139.56     0  14:00        0.06
  JCT-1042             JUNCTION     0.02     0.02   168.72     0  14:00        0.02
  JCT-1043             JUNCTION     0.04     0.05   136.45     0  14:00        0.05
  JCT-1044             JUNCTION     0.07     0.07   162.67     0  14:00        0.07
  JCT-1045             JUNCTION     0.08     0.09   126.09     1  14:00        0.09
  JCT-1046             JUNCTION     0.04     0.04   174.91     0  14:00        0.04
  JCT-1047             JUNCTION     0.00     0.00   125.50     0  00:00        0.00
  JCT-1049             JUNCTION     0.04     0.04   127.34     1  14:00        0.04
  JCT-1050             JUNCTION     0.02     0.02   165.68     1  12:37        0.02
  JCT-1051             JUNCTION     0.02     0.02   151.82     0  14:00        0.02
  JCT-1052             JUNCTION     0.04     0.04   163.74     0  14:00        0.04
  JCT-1053             JUNCTION     0.01     0.01   160.51     1  13:27        0.01
  JCT-1054             JUNCTION     0.04     0.04   165.34     0  14:00        0.04
  JCT-1056             JUNCTION     0.03     0.03   166.23     0  00:04        0.03
  JCT-1057             JUNCTION     0.04     0.04   147.04     1  14:00        0.04
  JCT-1058             JUNCTION     0.02     0.03   163.83     0  14:00        0.03
  JCT-1059             JUNCTION     0.02     0.02   146.02     0  14:00        0.02
  JCT-106              JUNCTION     0.11     0.11    18.11     0  14:00        0.11
  JCT-1060             JUNCTION     0.04     0.04   160.64     0  14:00        0.04
  JCT-1061             JUNCTION     0.03     0.03   164.17     0  14:00        0.03
  JCT-1062             JUNCTION     0.04     0.04   159.34     0  14:00        0.04
  JCT-1063             JUNCTION     0.01     0.01   177.31     1  13:46        0.01
  JCT-1064             JUNCTION     0.03     0.03   165.75     0  14:00        0.03
  JCT-1066             JUNCTION     0.02     0.02   161.02     1  13:29        0.02
  JCT-1067             JUNCTION     0.02     0.02   179.52     1  13:13        0.02
  JCT-1068             JUNCTION     0.04     0.04   149.54     1  13:08        0.04
  JCT-1069             JUNCTION     0.03     0.03   167.03     0  13:35        0.03
  JCT-1070             JUNCTION     0.01     0.01   151.21     1  13:39        0.01
  JCT-1071             JUNCTION     0.03     0.03   160.72     0  14:00        0.03
  JCT-1072             JUNCTION     0.09     0.09   152.51     0  14:00        0.09
  JCT-1074             JUNCTION     0.01     0.01   156.51     0  14:00        0.01
  JCT-1075             JUNCTION     0.02     0.02   143.32     1  13:34        0.02
  JCT-1076             JUNCTION     0.01     0.01   152.26     0  13:17        0.01
  JCT-1077             JUNCTION     0.03     0.03   142.03     0  14:00        0.03
  JCT-1078             JUNCTION     0.01     0.01   126.01     0  14:00        0.01
  JCT-1079             JUNCTION     0.01     0.01   161.51     1  13:47        0.01
  JCT-108              JUNCTION     0.11     0.11    14.11     0  14:00        0.11
  JCT-1080             JUNCTION     0.00     0.00   133.50     1  12:29        0.00
  JCT-1081             JUNCTION     0.02     0.02   142.02     0  14:00        0.02
  JCT-1082             JUNCTION     0.04     0.04   112.54     0  14:00        0.04
  JCT-1083             JUNCTION     0.09     0.10   140.10     0  14:00        0.10
  JCT-1085             JUNCTION     0.04     0.05   141.05     0  14:00        0.05
  JCT-1087             JUNCTION     0.02     0.02   146.02     0  14:00        0.02
  JCT-1088             JUNCTION     0.01     0.01   129.51     0  14:00        0.01
  JCT-1089             JUNCTION     0.04     0.04   161.69     1  14:00        0.04
  JCT-1090             JUNCTION     0.02     0.02   130.09     1  13:17        0.02
  JCT-1091             JUNCTION     0.02     0.02    83.02     0  13:22        0.02
  JCT-1092             JUNCTION     0.02     0.02   148.74     1  13:16        0.02
  JCT-1093             JUNCTION     0.03     0.03    75.03     0  13:46        0.03
  JCT-1095             JUNCTION     0.05     0.05    71.05     0  14:00        0.05
  JCT-1096             JUNCTION     0.00     0.00   161.77     1  13:37        0.00
  JCT-1097             JUNCTION     0.05     0.05    63.35     0  14:00        0.05
  JCT-1098             JUNCTION     0.04     0.04   167.65     0  13:55        0.04
  JCT-1099             JUNCTION     0.02     0.02    75.02     1  13:35        0.02
  JCT-110              JUNCTION     0.73     0.89    10.51     0  21:19        0.89
  JCT-1100             JUNCTION     0.06     0.06   165.78     0  13:57        0.06
  JCT-1101             JUNCTION     0.06     0.06    62.06     0  14:00        0.06
  JCT-1102             JUNCTION     0.02     0.02   173.82     0  13:52        0.02
  JCT-1103             JUNCTION     0.09     0.09    61.09     1  14:00        0.09
  JCT-1105             JUNCTION     0.00     0.00    60.50     0  00:00        0.00
  JCT-1106             JUNCTION     0.01     0.01   124.29     0  14:00        0.01
  JCT-1107             JUNCTION     0.13     0.42    51.37     1  14:50        0.42
  JCT-1108             JUNCTION     2.91     4.01   169.10     1  11:42        4.01
  JCT-1109             JUNCTION     0.16     0.58    53.69     1  14:50        0.58
  JCT-1110             JUNCTION     0.00     0.01   159.91     1  13:18        0.01
  JCT-1111             JUNCTION     0.07     0.23    57.15     1  14:50        0.23
  JCT-1112             JUNCTION     0.01     0.01   153.76     1  13:59        0.01
  JCT-1113             JUNCTION     0.02     0.02    52.26     1  13:58        0.02
  JCT-1114             JUNCTION     0.02     0.02   208.52     0  14:00        0.02
  JCT-1115             JUNCTION     0.02     0.02    44.98     0  14:00        0.02
  JCT-1116             JUNCTION     0.02     0.02   212.52     0  13:57        0.02
  JCT-1117             JUNCTION     0.07     0.22    54.23     1  14:50        0.22
  JCT-1118             JUNCTION     0.01     0.02   212.02     1  14:50        0.02
  JCT-1119             JUNCTION     0.08     0.27    51.58     1  14:50        0.27
  JCT-112              JUNCTION     0.11     0.11    43.61     0  14:00        0.11
  JCT-1120             JUNCTION     0.01     0.04   200.04     1  14:50        0.04
  JCT-1121             JUNCTION     0.08     0.26    52.26     1  14:50        0.26
  JCT-1123             JUNCTION     0.05     0.17    51.17     1  14:50        0.17
  JCT-1124             JUNCTION     0.02     0.07   197.31     1  14:50        0.07
  JCT-1127             JUNCTION     0.06     0.20    46.20     1  14:46        0.20
  JCT-1128             JUNCTION     0.01     0.04   196.04     1  14:50        0.04
  JCT-1129             JUNCTION     0.07     0.24    55.07     1  14:50        0.24
  JCT-1131             JUNCTION     0.06     0.22    56.23     1  14:50        0.22
  JCT-1133             JUNCTION     0.10     0.34    54.01     1  14:50        0.34
  JCT-1134             JUNCTION     0.01     0.04   180.04     1  14:50        0.04
  JCT-1135             JUNCTION     0.38     2.39    53.05     1  15:18        2.38
  JCT-1136             JUNCTION     0.01     0.05   158.22     1  14:50        0.05
  JCT-1137             JUNCTION     0.27     1.92    50.73     1  20:20        1.80
  JCT-1138             JUNCTION     0.01     0.05   159.39     1  14:50        0.05
  JCT-1139             JUNCTION     0.16     1.20    51.02     1  14:50        1.20
  JCT-114              JUNCTION     0.11     0.12    36.62     0  14:00        0.12
  JCT-1140             JUNCTION     0.01     0.02   221.52     1  14:50        0.02
  JCT-1141             JUNCTION     0.07     0.21    53.40     1  14:50        0.21
  JCT-1142             JUNCTION     0.01     0.03   191.03     1  14:50        0.03
  JCT-1143             JUNCTION     0.09     0.25    51.25     1  14:50        0.25
  JCT-1145             JUNCTION     0.28     2.38    36.48     1  15:03        2.35
  JCT-1146             JUNCTION     0.01     0.01   189.51     0  14:00        0.01
  JCT-1147             JUNCTION     0.11     0.32    36.32     1  21:02        0.32
  JCT-1149             JUNCTION     0.14     0.92    37.12     1  15:07        0.86
  JCT-1151             JUNCTION     0.18     1.01    37.11     1  15:07        0.93
  JCT-1152             JUNCTION     0.01     0.03   158.03     1  14:50        0.03
  JCT-1153             JUNCTION     0.16     0.56    43.56     1  14:50        0.56
  JCT-1154             JUNCTION     0.01     0.01   159.01     0  14:00        0.01
  JCT-1155             JUNCTION     0.07     0.24    51.74     1  14:50        0.24
  JCT-1157             JUNCTION     0.08     0.25    49.25     1  14:50        0.25
  JCT-1159             JUNCTION     0.09     0.33    51.63     1  14:50        0.33
  JCT-116              JUNCTION     0.07     0.07    28.52     0  14:00        0.07
  JCT-1160             JUNCTION     0.02     0.06   148.26     1  14:50        0.06
  JCT-1161             JUNCTION     0.11     0.38    51.48     1  14:50        0.38
  JCT-1162             JUNCTION     0.05     0.18   121.03     1  14:50        0.18
  JCT-1163             JUNCTION     0.12     0.41    50.91     1  14:50        0.41
  JCT-1164             JUNCTION     0.04     0.14   121.14     1  14:50        0.14
  JCT-1165             JUNCTION     0.12     0.41    50.41     1  14:50        0.41
  JCT-1166             JUNCTION     0.01     0.05   120.80     1  14:50        0.05
  JCT-1167             JUNCTION     0.24     3.23    42.53     1  14:40        3.17
  JCT-1168             JUNCTION     0.03     0.11    96.11     1  14:51        0.11
  JCT-1172             JUNCTION     0.01     0.01   152.51     0  14:00        0.01
  JCT-1178             JUNCTION     0.02     0.03   126.23     0  14:00        0.03
  JCT-118              JUNCTION     0.10     0.10    25.80     0  14:00        0.10
  JCT-1180             JUNCTION     0.01     0.01   166.01     0  14:00        0.01
  JCT-1182             JUNCTION     0.02     0.02   125.02     1  14:00        0.02
  JCT-1184             JUNCTION     0.01     0.01   123.01     0  14:00        0.01
  JCT-1186             JUNCTION     0.06     0.15    94.63     1  14:55        0.15
  JCT-1188             JUNCTION     0.05     0.17    94.72     1  14:53        0.17
  JCT-1190             JUNCTION     0.04     0.14    95.37     1  14:52        0.14
  JCT-1192             JUNCTION     0.06     0.15    94.09     1  14:56        0.15
  JCT-1196             JUNCTION     0.00     0.00   121.00     1  13:41        0.00
  JCT-1198             JUNCTION     0.01     0.01   115.01     0  14:00        0.01
  JCT-12               JUNCTION     0.03     0.04    54.04     0  00:07        0.04
  JCT-120              JUNCTION     0.12     0.12    21.46     0  14:00        0.12
  JCT-1200             JUNCTION     0.01     0.01   135.51     0  13:58        0.01
  JCT-1202             JUNCTION     0.05     0.14    93.00     1  14:58        0.14
  JCT-1204             JUNCTION     0.07     0.20    92.40     1  14:59        0.20
  JCT-1206             JUNCTION     0.04     0.10    91.95     1  15:00        0.10
  JCT-1208             JUNCTION     0.02     0.02   102.02     0  14:00        0.02
  JCT-1216             JUNCTION     0.01     0.01   117.51     0  13:59        0.01
  JCT-122              JUNCTION     0.02     0.02    21.62     1  04:08        0.02
  JCT-1222             JUNCTION     0.01     0.01   112.01     1  14:00        0.01
  JCT-1224             JUNCTION     0.01     0.01   143.11     1  13:20        0.01
  JCT-1228             JUNCTION     0.01     0.01   147.91     1  14:00        0.01
  JCT-1230             JUNCTION     0.01     0.01   137.41     0  14:00        0.01
  JCT-1232             JUNCTION     0.01     0.01   125.91     1  14:00        0.01
  JCT-1234             JUNCTION     0.00     0.00   107.70     1  13:43        0.00
  JCT-1238             JUNCTION     0.01     0.01    79.01     0  14:00        0.01
  JCT-124              JUNCTION     0.01     0.01   128.01     0  13:13        0.01
  JCT-1240             JUNCTION     0.02     0.03    97.93     1  14:00        0.03
  JCT-1242             JUNCTION     0.00     0.01   129.21     0  13:58        0.01
  JCT-1244             JUNCTION     0.00     0.00   156.80     0  04:15        0.00
  JCT-1246             JUNCTION     0.01     0.01   185.71     0  14:00        0.01
  JCT-1248             JUNCTION     0.04     0.04   168.04     1  14:00        0.04
  JCT-1250             JUNCTION     0.03     0.03   178.03     0  13:57        0.03
  JCT-1252             JUNCTION     0.02     0.02   170.52     1  13:30        0.02
  JCT-1254             JUNCTION     0.02     0.03   109.83     1  14:00        0.03
  JCT-1256             JUNCTION     0.06     0.07   105.97     1  14:00        0.07
  JCT-1258             JUNCTION     0.01     0.01   140.01     0  13:48        0.01
  JCT-126              JUNCTION     0.03     0.03   146.53     0  13:59        0.03
  JCT-1264             JUNCTION     0.12     0.13   106.96     1  14:00        0.13
  JCT-1268             JUNCTION     0.18     0.20   107.11     1  14:00        0.20
  JCT-1272             JUNCTION     0.07     0.07   108.11     1  14:00        0.07
  JCT-1276             JUNCTION     0.07     0.08   109.00     0  14:00        0.08
  JCT-1278             JUNCTION     0.05     0.06   110.21     0  14:00        0.06
  JCT-128              JUNCTION     0.03     0.03   149.03     0  14:00        0.03
  JCT-1282             JUNCTION     0.05     0.06   111.21     0  14:00        0.06
  JCT-1284             JUNCTION     0.04     0.05   112.45     0  14:00        0.05
  JCT-1286             JUNCTION     0.03     0.04   133.54     0  14:00        0.04
  JCT-1290             JUNCTION     0.04     0.05   112.87     0  14:00        0.05
  JCT-1292             JUNCTION     0.01     0.01   124.91     0  13:59        0.01
  JCT-1294             JUNCTION     0.01     0.02   128.02     0  14:00        0.02
  JCT-130              JUNCTION     0.01     0.01   150.01     0  13:20        0.01
  JCT-1300             JUNCTION     0.04     0.04   127.19     0  14:00        0.04
  JCT-1306             JUNCTION     0.03     0.04   119.71     0  14:00        0.04
  JCT-1312             JUNCTION     0.04     0.11    91.11     1  15:01        0.11
  JCT-1314             JUNCTION     0.02     0.03    59.03     0  14:00        0.03
  JCT-132              JUNCTION     0.01     0.01   140.11     1  13:34        0.01
  JCT-1320             JUNCTION     0.02     0.02    69.52     0  14:00        0.02
  JCT-1322             JUNCTION     0.00     0.00    80.25     0  13:59        0.00
  JCT-1324             JUNCTION     0.06     0.06    79.06     1  13:15        0.06
  JCT-1326             JUNCTION     0.24     0.24    77.07     0  14:00        0.24
  JCT-1328             JUNCTION     0.23     0.23    76.73     0  14:00        0.23
  JCT-1330             JUNCTION     0.25     0.26    76.46     0  14:00        0.26
  JCT-1334             JUNCTION     0.21     0.40    74.90     1  21:00        0.40
  JCT-1336             JUNCTION     0.28     0.51    60.51     1  21:01        0.51
  JCT-1338             JUNCTION     0.01     0.01    71.51     0  02:20        0.01
  JCT-134              JUNCTION     0.03     0.03    97.03     0  13:54        0.03
  JCT-1340             JUNCTION     0.09     0.09    63.09     0  14:00        0.09
  JCT-1342             JUNCTION     0.08     0.09    67.09     0  14:00        0.09
  JCT-1344             JUNCTION     0.11     0.11    86.86     0  14:00        0.11
  JCT-1346             JUNCTION     0.05     0.05   130.05     0  14:00        0.05
  JCT-1348             JUNCTION     0.03     0.03   134.03     0  14:00        0.03
  JCT-1350             JUNCTION     0.03     0.03   152.53     0  14:00        0.03
  JCT-1352             JUNCTION     0.04     0.04   131.59     0  14:00        0.04
  JCT-1354             JUNCTION     0.02     0.02   140.87     1  13:34        0.02
  JCT-1356             JUNCTION     0.08     0.08   157.88     0  14:00        0.08
  JCT-1358             JUNCTION     0.07     0.07   161.47     0  14:00        0.07
  JCT-136              JUNCTION     0.01     0.01    92.26     0  13:56        0.01
  JCT-1360             JUNCTION     0.06     0.06   163.81     0  14:00        0.06
  JCT-1362             JUNCTION     0.07     0.08   134.08     0  14:00        0.08
  JCT-1368             JUNCTION     0.04     0.04   143.54     0  14:00        0.04
  JCT-1370             JUNCTION     0.00     0.00   154.80     0  13:45        0.00
  JCT-1374             JUNCTION     0.03     0.03   137.93     0  14:00        0.03
  JCT-1376             JUNCTION     0.01     0.01   157.38     1  13:37        0.01
  JCT-1378             JUNCTION     0.02     0.02   120.17     0  14:00        0.02
  JCT-138              JUNCTION     0.01     0.02   110.62     0  13:57        0.02
  JCT-1380             JUNCTION     0.02     0.02   161.32     0  14:00        0.02
  JCT-1382             JUNCTION     0.02     0.03   145.63     0  14:00        0.03
  JCT-1384             JUNCTION     0.02     0.03   145.93     1  13:12        0.03
  JCT-1386             JUNCTION     0.01     0.01   168.01     0  14:00        0.01
  JCT-1388             JUNCTION     0.02     0.02   199.72     0  14:00        0.02
  JCT-1390             JUNCTION     0.02     0.03   169.53     0  14:00        0.03
  JCT-1392             JUNCTION     0.01     0.01   151.91     1  13:24        0.01
  JCT-1398             JUNCTION     0.04     0.04   114.94     0  14:00        0.04
  JCT-14               JUNCTION     0.08     0.11    52.11     1  14:56        0.11
  JCT-140              JUNCTION     0.02     0.02    89.15     0  13:25        0.02
  JCT-1402             JUNCTION     0.04     0.04   113.97     0  14:00        0.04
  JCT-1404             JUNCTION     0.03     0.03   116.23     0  14:00        0.03
  JCT-1410             JUNCTION     0.02     0.02   117.77     0  14:00        0.02
  JCT-1412             JUNCTION     0.01     0.01   122.56     0  13:53        0.01
  JCT-142              JUNCTION     0.02     0.03    88.03     0  14:00        0.03
  JCT-144              JUNCTION     0.07     0.07    71.57     0  14:00        0.07
  JCT-146              JUNCTION     0.07     0.07    69.07     0  14:00        0.07
  JCT-1496             JUNCTION     0.02     0.02   161.47     0  14:00        0.02
  JCT-150              JUNCTION     0.04     0.04    86.59     1  13:42        0.04
  JCT-1500             JUNCTION     0.03     0.03   178.53     1  14:00        0.03
  JCT-1502             JUNCTION     0.05     0.05   124.55     1  13:32        0.05
  JCT-1504             JUNCTION     0.08     0.08   111.21     1  13:28        0.08
  JCT-1514             JUNCTION     0.02     0.02   196.02     0  13:45        0.02
  JCT-1516             JUNCTION     0.03     0.03   202.03     0  14:00        0.03
  JCT-1518             JUNCTION     0.02     0.02   236.02     1  13:14        0.02
  JCT-1520             JUNCTION     0.02     0.02   227.52     0  13:57        0.02
  JCT-1522             JUNCTION     0.02     0.02   220.72     1  13:24        0.02
  JCT-1528             JUNCTION     0.01     0.01   225.11     1  13:20        0.01
  JCT-1530             JUNCTION     0.02     0.02   159.02     0  14:00        0.02
  JCT-1532             JUNCTION     0.07     0.08   161.23     0  14:00        0.08
  JCT-1534             JUNCTION     0.02     0.02   163.72     1  13:58        0.02
  JCT-1538             JUNCTION     0.01     0.01   196.01     0  13:21        0.01
  JCT-154              JUNCTION     0.04     0.04    93.04     1  13:40        0.04
  JCT-1540             JUNCTION     0.01     0.01   115.51     1  13:33        0.01
  JCT-1542             JUNCTION     0.01     0.01   189.35     1  14:00        0.01
  JCT-1544             JUNCTION     0.02     0.02   131.02     1  13:30        0.02
  JCT-1546             JUNCTION     0.06     0.07   100.07     0  14:00        0.07
  JCT-1548             JUNCTION     0.05     0.06   135.06     0  00:01        0.05
  JCT-1550             JUNCTION     0.04     0.05    79.75     0  00:03        0.05
  JCT-1552             JUNCTION     0.01     0.01    81.01     0  14:00        0.01
  JCT-1554             JUNCTION     0.01     0.02    39.27     0  14:00        0.02
  JCT-1556             JUNCTION     0.00     0.00    69.43     0  00:00        0.00
  JCT-1558             JUNCTION     0.00     0.00    69.30     0  00:00        0.00
  JCT-1560             JUNCTION     0.01     0.01    73.26     1  13:16        0.01
  JCT-1562             JUNCTION     0.01     0.01    63.41     1  13:26        0.01
  JCT-1564             JUNCTION     0.01     0.01    54.51     1  13:30        0.01
  JCT-1566             JUNCTION     0.08     0.13    38.03     1  15:17        0.13
  JCT-1568             JUNCTION     0.00     0.01   163.80     1  13:21        0.01
  JCT-1572             JUNCTION     0.01     0.01   229.01     1  14:00        0.01
  JCT-1574             JUNCTION     0.01     0.01   235.26     1  13:49        0.01
  JCT-1576             JUNCTION     0.01     0.05   121.26     1  14:50        0.05
  JCT-158              JUNCTION     0.02     0.02   114.77     1  14:00        0.02
  JCT-1586             JUNCTION     0.01     0.01   197.41     1  13:38        0.01
  JCT-1588             JUNCTION     0.01     0.01   192.16     1  13:12        0.01
  JCT-1590             JUNCTION     0.01     0.01   206.51     1  13:39        0.01
  JCT-1594             JUNCTION     0.01     0.01   168.01     0  14:00        0.01
  JCT-1596             JUNCTION     0.00     0.01   115.85     1  13:53        0.01
  JCT-1598             JUNCTION     0.01     0.01   171.68     1  14:00        0.01
  JCT-16               JUNCTION     0.18     0.25    52.48     1  14:55        0.25
  JCT-160              JUNCTION     0.03     0.03   101.73     0  14:00        0.03
  JCT-1600             JUNCTION     0.02     0.02   176.42     1  13:03        0.02
  JCT-1602             JUNCTION     0.04     0.04   229.44     0  13:10        0.04
  JCT-1608             JUNCTION     0.01     0.04   162.04     1  14:50        0.04
  JCT-1610             JUNCTION     0.01     0.01   166.71     0  13:47        0.01
  JCT-1612             JUNCTION     5.13     6.50   172.50     1  00:59        6.50
  JCT-1616             JUNCTION     0.01     0.01   188.91     1  13:13        0.01
  JCT-1618             JUNCTION     0.01     0.01   112.51     0  13:50        0.01
  JCT-162              JUNCTION     0.04     0.04    96.24     0  13:58        0.04
  JCT-1620             JUNCTION     0.00     0.00   161.52     1  13:34        0.00
  JCT-1622             JUNCTION     0.02     0.02   148.90     0  13:55        0.02
  JCT-1624             JUNCTION     0.01     0.02   171.02     0  13:32        0.02
  JCT-1626             JUNCTION     0.00     0.01   131.51     1  13:46        0.01
  JCT-1644             JUNCTION     0.03     0.03   165.03     0  13:57        0.03
  JCT-1646             JUNCTION     0.04     0.04    89.52     1  13:28        0.04
  JCT-1650             JUNCTION     1.26     3.11    93.11     1  14:50        3.11
  JCT-1654             JUNCTION     0.01     0.01   146.01     1  14:00        0.01
  JCT-1656             JUNCTION     1.79     3.18   121.18     2  00:00        3.18
  JCT-1658             JUNCTION     0.02     0.02    38.70     0  14:00        0.02
  JCT-166              JUNCTION     0.02     0.03   130.53     1  13:58        0.03
  JCT-1660             JUNCTION     0.10     0.35   135.35     1  14:50        0.35
  JCT-168              JUNCTION     0.03     0.03   141.33     0  13:54        0.03
  JCT-1680             JUNCTION     1.09    10.71    90.71     1  20:24        9.55
  JCT-1682             JUNCTION     0.47     7.18   106.63     1  14:55        7.18
  JCT-1684             JUNCTION     0.24     4.54   106.67     1  14:55        4.54
  JCT-1686             JUNCTION     0.28     6.79   120.79     1  14:55        6.79
  JCT-1688             JUNCTION     0.06     0.21   129.71     1  14:50        0.21
  JCT-1690             JUNCTION     0.12     0.43    70.99     1  14:50        0.43
  JCT-1692             JUNCTION     0.06     0.19   102.09     1  14:50        0.19
  JCT-1694             JUNCTION     0.05     0.16   111.66     1  14:50        0.16
  JCT-1696             JUNCTION     0.03     0.10   129.10     1  14:50        0.10
  JCT-1698             JUNCTION     0.06     0.20   138.45     1  14:50        0.20
  JCT-1700             JUNCTION     0.04     0.14   124.14     1  14:50        0.14
  JCT-1706             JUNCTION     3.12    11.15    64.20     1  14:14       10.90
  JCT-1714             JUNCTION     1.25     6.00    64.10     1  14:13        6.00
  JCT-172              JUNCTION     0.02     0.02   129.47     1  13:30        0.02
  JCT-1720             JUNCTION     4.52    13.92    63.00     1  14:20       13.92
  JCT-1722             JUNCTION     0.04     0.14    74.29     1  14:50        0.14
  JCT-1724             JUNCTION     0.05     0.17    75.27     1  14:50        0.17
  JCT-1726             JUNCTION     0.15     0.53    69.93     1  14:50        0.53
  JCT-1728             JUNCTION     0.16     0.58    69.18     1  14:50        0.58
  JCT-1730             JUNCTION     0.05     0.17   102.47     1  14:50        0.17
  JCT-1734             JUNCTION     1.51    11.95    86.20     1  20:24       11.57
  JCT-174              JUNCTION     0.02     0.02   127.52     0  13:58        0.02
  JCT-1750             JUNCTION     0.85     4.66    64.66     1  20:18        4.26
  JCT-1752             JUNCTION     1.12     6.00    64.60     1  14:10        5.51
  JCT-1754             JUNCTION     0.31     7.25    65.00     1  14:39        5.85
  JCT-1756             JUNCTION     2.78    10.98    64.43     1  14:13       10.64
  JCT-1762             JUNCTION     3.53    11.70    66.00     1  14:05       11.70
  JCT-1764             JUNCTION     0.05     0.18    71.44     1  14:50        0.18
  JCT-1766             JUNCTION     0.04     0.15    79.30     1  14:50        0.15
  JCT-1768             JUNCTION     0.09     0.31    82.31     1  14:50        0.31
  JCT-1770             JUNCTION     0.06     0.21    84.26     1  14:49        0.21
  JCT-1772             JUNCTION     0.09     0.32    83.52     1  14:50        0.32
  JCT-1774             JUNCTION     4.07    11.70    65.40     1  13:58       11.70
  JCT-178              JUNCTION     0.03     0.03   114.28     0  13:59        0.03
  JCT-1782             JUNCTION     4.13    12.90    65.70     1  13:58       12.59
  JCT-1784             JUNCTION     2.62    11.15    67.50     1  23:20        9.44
  JCT-1788             JUNCTION     3.02    12.23    69.00     1  14:35       12.23
  JCT-1792             JUNCTION     1.20    12.60    75.60     1  20:14        7.47
  JCT-1798             JUNCTION     0.07     0.26    98.26     1  14:50        0.26
  JCT-18               JUNCTION     0.07     0.10    65.98     1  14:53        0.10
  JCT-180              JUNCTION     0.04     0.04   103.04     1  13:37        0.04
  JCT-1800             JUNCTION     0.06     0.23   115.08     1  14:50        0.23
  JCT-1802             JUNCTION     0.05     0.17   128.17     1  14:50        0.17
  JCT-1804             JUNCTION     0.08     0.28   136.08     1  14:50        0.28
  JCT-1806             JUNCTION     0.07     0.24   141.04     1  14:50        0.24
  JCT-1808             JUNCTION     0.06     0.21   143.01     1  14:50        0.21
  JCT-1810             JUNCTION     0.06     0.21    76.71     1  14:50        0.21
  JCT-1812             JUNCTION     0.05     0.19    87.69     1  14:50        0.19
  JCT-1814             JUNCTION     0.04     0.13    98.43     1  14:49        0.13
  JCT-1816             JUNCTION     3.43    12.20    66.80     1  14:03       11.46
  JCT-1820             JUNCTION     0.18     0.62    66.82     1  14:56        0.62
  JCT-1822             JUNCTION     0.82    14.10    68.50     1  15:03        9.55
  JCT-1824             JUNCTION     0.98    14.40    67.30     1  15:01       10.02
  JCT-1826             JUNCTION     0.62    13.70    69.70     1  14:57        9.80
  JCT-1828             JUNCTION     0.26    11.26    71.51     1  15:03        5.09
  JCT-1830             JUNCTION     0.05     3.40    68.90     1  14:55        0.81
  JCT-1832             JUNCTION     0.19     0.71    69.71     1  14:50        0.71
  JCT-1834             JUNCTION     0.17     0.64    71.64     1  14:50        0.64
  JCT-1836             JUNCTION     0.12     0.44    78.14     1  14:50        0.44
  JCT-1838             JUNCTION     0.15     0.55    80.30     1  14:50        0.55
  JCT-184              JUNCTION     0.01     0.01   105.61     0  13:52        0.01
  JCT-1840             JUNCTION     0.13     0.48    82.03     1  14:50        0.48
  JCT-1842             JUNCTION     0.06     0.20    84.30     1  14:50        0.20
  JCT-1844             JUNCTION     0.05     0.17    74.97     1  14:50        0.17
  JCT-1846             JUNCTION     0.08     0.28    70.05     1  14:49        0.28
  JCT-1848             JUNCTION     0.04     0.14    77.14     1  14:50        0.14
  JCT-1850             JUNCTION     0.12     0.39    52.79     1  14:50        0.39
  JCT-1852             JUNCTION     0.10     0.32    61.17     1  14:50        0.32
  JCT-1854             JUNCTION     0.07     0.24    68.34     1  14:50        0.24
  JCT-1856             JUNCTION     0.11     0.27    73.17     1  14:50        0.27
  JCT-1858             JUNCTION     0.06     0.20    70.90     1  14:50        0.20
  JCT-186              JUNCTION     0.02     0.02    92.52     0  13:58        0.02
  JCT-1860             JUNCTION     0.04     0.14    57.54     1  14:46        0.14
  JCT-1862             JUNCTION     0.13     0.45    47.45     1  14:48        0.45
  JCT-1864             JUNCTION     0.17     1.23    46.53     1  14:55        1.20
  JCT-1866             JUNCTION     0.15     1.24    46.49     1  14:56        1.17
  JCT-1868             JUNCTION     0.37     5.92    50.64     1  14:46        1.73
  JCT-1870             JUNCTION     0.07     0.25    81.00     1  14:48        0.25
  JCT-1872             JUNCTION     0.06     0.22    70.87     1  14:50        0.22
  JCT-1874             JUNCTION     0.57     0.78    52.12     1  14:50        0.78
  JCT-1876             JUNCTION     0.14     0.50    46.25     1  14:50        0.50
  JCT-1878             JUNCTION     0.13     0.34    64.54     1  14:50        0.34
  JCT-188              JUNCTION     0.02     0.02    94.02     1  13:29        0.02
  JCT-1880             JUNCTION     0.46     1.70    44.20     1  14:49        1.70
  JCT-1882             JUNCTION     0.18     0.70    45.60     1  14:50        0.70
  JCT-1884             JUNCTION     0.12     0.44    50.44     1  14:50        0.44
  JCT-1886             JUNCTION     0.13     0.46    42.99     1  14:50        0.46
  JCT-1888             JUNCTION     0.18     0.75    40.25     1  20:35        0.75
  JCT-1890             JUNCTION     0.09     0.32    47.60     1  14:50        0.32
  JCT-1892             JUNCTION     0.08     0.26    50.26     1  14:50        0.26
  JCT-1894             JUNCTION     0.03     0.11    69.94     1  14:48        0.11
  JCT-1896             JUNCTION     0.06     0.21    71.21     1  14:50        0.21
  JCT-1898             JUNCTION     0.09     0.30    67.93     1  14:50        0.30
  JCT-190              JUNCTION     0.03     0.03    84.03     1  13:43        0.03
  JCT-1900             JUNCTION     0.05     0.16    76.21     1  14:50        0.16
  JCT-1902             JUNCTION     0.03     0.13    89.17     1  14:50        0.13
  JCT-1904             JUNCTION     0.06     0.21    72.11     1  14:50        0.21
  JCT-1906             JUNCTION     0.03     0.09    99.39     1  14:48        0.09
  JCT-1908             JUNCTION     0.09     0.31    69.81     1  14:50        0.31
  JCT-1910             JUNCTION     0.08     0.28    68.28     1  14:50        0.28
  JCT-1912             JUNCTION     0.08     0.28    65.28     1  14:50        0.28
  JCT-1914             JUNCTION     0.06     0.21    65.71     1  14:50        0.21
  JCT-1916             JUNCTION     0.05     0.19    90.49     1  14:50        0.19
  JCT-1918             JUNCTION     0.07     0.23   102.73     1  14:50        0.23
  JCT-192              JUNCTION     0.11     0.11    69.61     0  14:00        0.11
  JCT-1920             JUNCTION     0.06     0.22   113.82     1  14:50        0.22
  JCT-1922             JUNCTION     0.06     0.21   115.21     1  14:50        0.21
  JCT-1924             JUNCTION     0.04     0.15   107.75     1  14:50        0.15
  JCT-1926             JUNCTION     0.05     0.17   102.67     1  14:50        0.17
  JCT-1928             JUNCTION     0.10     0.35    82.85     1  14:47        0.35
  JCT-1930             JUNCTION     0.05     0.16    82.26     1  14:50        0.16
  JCT-1932             JUNCTION     0.11     0.46    60.46     1  20:34        0.46
  JCT-1934             JUNCTION     0.13     0.55    65.55     1  20:34        0.52
  JCT-1936             JUNCTION     0.40     8.98    70.75     1  20:29        3.77
  JCT-1938             JUNCTION     0.09     1.04    65.99     1  20:33        0.66
  JCT-194              JUNCTION     0.02     0.02    71.52     0  13:51        0.02
  JCT-1940             JUNCTION     0.06     0.19    70.74     1  14:50        0.19
  JCT-1942             JUNCTION     0.04     0.13    71.83     1  14:50        0.13
  JCT-1944             JUNCTION     0.11     0.37    68.37     1  14:50        0.37
  JCT-1946             JUNCTION     0.11     0.39    76.89     1  14:50        0.39
  JCT-1948             JUNCTION     0.11     0.37    83.02     1  14:50        0.37
  JCT-1950             JUNCTION     0.17     0.63    83.78     1  14:50        0.63
  JCT-1952             JUNCTION     0.09     0.30    77.30     1  14:50        0.30
  JCT-1954             JUNCTION     0.06     0.19    93.99     1  14:50        0.19
  JCT-1956             JUNCTION     0.07     0.22    98.92     1  14:50        0.22
  JCT-1958             JUNCTION     0.06     0.22    96.72     1  14:50        0.22
  JCT-196              JUNCTION     0.11     0.11    67.51     0  14:00        0.11
  JCT-1960             JUNCTION     0.07     0.24    98.74     1  14:50        0.24
  JCT-1962             JUNCTION     0.14     0.47    50.47     1  14:50        0.47
  JCT-1964             JUNCTION     0.08     0.29    61.99     1  14:50        0.29
  JCT-1966             JUNCTION     0.07     0.26    65.96     1  14:50        0.26
  JCT-1968             JUNCTION     0.16     0.62    63.22     1  14:50        0.62
  JCT-1970             JUNCTION     0.10     0.37    61.37     1  14:50        0.37
  JCT-1972             JUNCTION     0.25     2.03    50.53     1  20:26        1.96
  JCT-1974             JUNCTION     0.05     0.15    56.40     1  14:50        0.15
  JCT-1976             JUNCTION     0.53     1.76    46.61     1  14:50        1.76
  JCT-1978             JUNCTION     0.08     0.26    49.26     1  14:50        0.26
  JCT-1980             JUNCTION     0.14     0.46    56.41     1  14:50        0.46
  JCT-1982             JUNCTION     0.66    15.50    73.70     1  20:26        8.50
  JCT-1984             JUNCTION     0.03     0.12    56.62     1  14:50        0.12
  JCT-1986             JUNCTION     0.05     0.19    46.54     1  14:50        0.19
  JCT-1988             JUNCTION     0.37     0.72    42.32     1  15:36        0.72
  JCT-1990             JUNCTION     0.36     0.71    43.11     1  15:36        0.70
  JCT-1992             JUNCTION     0.06     0.21    55.31     1  14:50        0.21
  JCT-1994             JUNCTION     0.03     0.12    73.72     1  14:49        0.12
  JCT-1996             JUNCTION     0.07     0.23    46.48     1  14:50        0.23
  JCT-1998             JUNCTION     0.10     0.37    45.17     1  14:50        0.37
  JCT-20               JUNCTION     0.05     0.05    81.34     0  14:00        0.05
  JCT-2000             JUNCTION     0.37     0.75    41.15     1  15:37        0.74
  JCT-2002             JUNCTION     0.11     0.38    44.13     1  14:50        0.38
  JCT-2004             JUNCTION     0.15     0.52    46.92     1  14:50        0.52
  JCT-2006             JUNCTION     0.23     1.26    48.06     1  20:26        1.09
  JCT-2008             JUNCTION     0.10     0.34    45.84     1  14:50        0.34
  JCT-2010             JUNCTION     0.11     0.39    46.89     1  14:50        0.39
  JCT-2012             JUNCTION     0.95     1.89    44.29     1  14:50        1.89
  JCT-2014             JUNCTION     0.50     1.84    43.64     1  14:50        1.84
  JCT-2016             JUNCTION     0.34     1.12    41.72     1  20:32        1.12
  JCT-2018             JUNCTION     0.05     0.19    44.39     1  14:50        0.19
  JCT-202              JUNCTION     0.05     0.05    95.25     1  13:39        0.05
  JCT-2020             JUNCTION     0.07     0.22    44.37     1  14:49        0.22
  JCT-2022             JUNCTION     0.38     0.77    39.92     1  15:38        0.76
  JCT-2024             JUNCTION     0.80     1.94    39.44     1  14:50        1.94
  JCT-2026             JUNCTION     0.15     0.55    41.80     1  14:50        0.55
  JCT-2028             JUNCTION     0.14     0.48    42.88     1  14:50        0.48
  JCT-2030             JUNCTION     0.12     0.42    41.52     1  14:50        0.42
  JCT-2032             JUNCTION     0.10     0.36    43.21     1  14:50        0.36
  JCT-2034             JUNCTION     0.05     0.16    50.26     1  14:50        0.16
  JCT-2036             JUNCTION     0.00     0.00    50.70     0  00:00        0.00
  JCT-2038             JUNCTION     0.00     0.00    48.09     0  00:00        0.00
  JCT-204              JUNCTION     0.02     0.02   126.52     1  13:31        0.02
[...]
  CDT-2607                    0.01      0.01      0.01      0.61         0.01
  CDT-2611                    0.01      0.01      0.01      1.57         0.01
  CDT-2615                    0.01      0.01      1.34      0.01         0.01
  CDT-2629                    0.24      0.25      0.47      0.01         0.02
  CDT-2631                    0.47      0.47      1.55      0.01         0.04
  CDT-2633                    2.55      2.55      3.13      0.01         0.02
  CDT-2637                    0.01      0.01      0.26      0.01         0.01
  CDT-2659                    0.01      0.01      0.36      0.01         0.01
  CDT-2661                    0.34      0.36      1.22      0.01         0.07
  CDT-2665                    0.01      0.01      0.01      0.01         0.01
  CDT-2667                    3.95      3.95      4.13      0.39         0.40
  CDT-2669                    3.16      3.19      3.49      0.01         0.25
  CDT-2671                    3.49      3.49      3.88      0.01         0.52
  CDT-2673                    1.76      1.76      2.70      0.01         0.01
  CDT-2675                    2.70      2.70      3.22      0.01         0.01
  CDT-2679                    3.71      4.03      3.81      2.10         0.53
  CDT-2681                    3.44      3.81      3.44      1.72         0.32
  CDT-2683                    3.24      3.24      3.53      0.01         0.23
  CDT-2687                    0.01      0.01      1.81      0.01         0.01
  CDT-2689                    0.01      0.01      0.69      0.01         0.01
  CDT-2691                    3.53      3.53      3.95      0.01         0.13
  CDT-2693                    3.69      4.13      3.69      4.06         1.91
  CDT-2733                    0.01      0.01      2.53      0.01         0.01
  CDT-2735                    0.01      0.01      1.15      0.01         0.01
  CDT-2739                    0.17      0.17      0.39      0.01         0.03
  CDT-2741                    1.92      1.95      2.99      0.01         0.09
  CDT-2743                    3.19      3.19      3.30      0.01         1.06
  CDT-2745                    2.97      3.12      3.25      0.02         1.00
  CDT-2747                    3.40      3.40      3.52      1.09         1.39
  CDT-2749                    3.52      3.52      3.71      0.22         1.08
  CDT-2803                    0.01      0.01     46.91      0.01         0.01
  CDT-2805                    0.01      0.01     46.91      0.01         0.01
  CDT-2807                   46.68     46.68     46.95      0.01         0.01
  CDT-2811                    1.28      1.28      2.96      0.01         0.01
  CDT-2813                    2.96      2.96      3.82      0.01         0.01
  CDT-2815                    3.82      3.82     10.00      0.01         0.01
  CDT-2993                    0.01      0.01      0.43      0.01         0.01
  CDT-2995                    0.10      0.10      0.66      0.01         0.01
  CDT-2997                    0.01      0.01      0.92      0.01         0.01
  CDT-2999                    0.01      0.01      0.20      0.01         0.01
  CDT-3003                    0.20      0.20      0.43      0.01         0.01
  CDT-3005                    0.40      0.43      0.46      0.02         0.13
  CDT-3007                    0.46      0.46      0.85      0.01         0.08
  CDT-3009                    0.01      0.01      8.86      0.01         0.01
  CDT-3011                    0.08      0.08      1.14      0.01         0.01
  CDT-3013                    0.85      0.85      1.26      0.01         0.03
  CDT-3015                    1.23      1.26      1.37      0.01         0.17
  CDT-3017                    0.75      0.77      1.28      0.01         0.06
  CDT-3019                    1.28      1.28      2.35      0.01         0.04
  CDT-3021                    1.15      1.16      1.93      0.01         0.01
  CDT-3023                    1.93      1.93      3.29      0.01         0.01
  CDT-3025                    0.01      0.01      0.90      0.01         0.01
  CDT-3029                    0.01      0.01      0.44      0.01         0.01
  CDT-3033                    0.01      0.01      1.78      0.01         0.01
  CDT-3035                    2.32      4.49      2.32      4.65         2.32
  CDT-3037                    0.25      0.63      0.32      1.34         0.11
  CDT-3039                    0.08      0.08      1.01      0.01         0.01
  CDT-3041                    1.01      1.01      1.21      0.01         0.01
  CDT-3043                    0.01      0.01      1.31      0.01         0.01
  CDT-3045                    1.31      1.31      2.49      0.01         0.03
  CDT-3047                    0.01      0.01      1.02      0.01         0.01
  CDT-3049                    1.00      1.03      1.73      0.01         0.04
  CDT-3051                    1.73      1.73      2.78      0.01         0.09
  CDT-3053                    0.01      0.01      2.88      0.01         0.01
  CDT-3059                    0.01      0.01      0.18      0.01         0.01
  CDT-3067                    0.01      0.01      0.56      0.01         0.01
  CDT-3069                    0.01      0.01      0.54      0.01         0.01
  CDT-3071                    0.17      0.18      0.29      0.01         0.03
  CDT-3073                    3.54      3.54      4.01      0.69         0.91
  CDT-3075                    0.29      0.29      7.70      0.01         0.01
  CDT-3077                    3.87      3.87      4.24      0.07         0.71
  CDT-3079                    3.46      3.62      3.71      0.23         1.15
  CDT-3081                    3.91      3.91      4.03      1.04         1.41
  CDT-3083                    1.51      1.51      1.74      0.01         0.37
  CDT-3085                    1.37      1.37      3.54      0.01         0.01
  CDT-3087                    3.29      3.29      5.38      0.01         0.07
  CDT-3089                    4.02      4.02      4.13      0.22         1.08
  CDT-3091                    3.88      3.88      4.07      0.01         0.62
  CDT-3093                    3.11      3.11      3.77      0.19         0.28
  CDT-3095                    3.56      3.77      3.91      2.14         1.70
  CDT-3097                    1.53      1.53      2.59      0.01         0.02
  CDT-3099                    2.53      2.53      2.80      0.01         0.10
  CDT-3103                    1.89      1.89      2.78      0.01         0.03
  CDT-3107                    0.01      0.01      1.89      0.01         0.01
  CDT-3119                    0.01      0.01      1.53      0.01         0.01
  CDT-3125                    0.01      0.01      0.11      0.01         0.01
  CDT-3173                    0.01      0.01     44.85      0.01         0.01
  CDT-3203                    1.97      1.97      5.07      0.01         0.01
  CDT-3205                    5.07      5.07      5.42      0.01         0.01
  CDT-3207                    5.42      5.42      7.62      0.01         0.01
  CDT-3217                    1.18      1.18      6.58      0.01         0.01
  CDT-3219                    0.25      0.26      1.18      0.12         0.11
  CDT-3223                    4.70      4.70      4.87      0.01         0.09
  CDT-3227                    4.84      4.84      4.99      0.01         0.09
  CDT-3229                    4.99      4.99      5.07      0.01         0.09
  CDT-3231                    5.07      5.07      5.30      0.01         0.05
  CDT-3233                    5.30      5.30      5.42      0.37         0.81
  CDT-3235                    5.42      5.42      5.56      0.01         0.07
  CDT-3237                    5.56      5.56      5.98      0.01         0.01
  CDT-3239                    0.01      0.01      0.07      0.01         0.01
  CDT-3243                    0.01      0.01      0.22      0.01         0.01
  CDT-3245                    0.22      0.22      6.51      0.01         0.01
  CDT-3247                    0.01      0.01      0.89      0.01         0.01
  CDT-3249                    0.01      0.89      0.01      1.72         0.01
  CDT-3253                    1.31      1.42      2.58      0.01         0.29
  CDT-3257                    0.01      0.01      0.35      0.15         0.01
  CDT-3259                    0.32      0.36      0.34      8.35         0.17
  CDT-3261                    0.31      0.34      0.35      0.04         0.13
  CDT-3263                    0.32      0.35      0.42      0.01         0.12
  CDT-3265                    0.40      0.43      0.63      0.01         0.08
  CDT-3267                    0.63      0.63      3.19      0.01         0.03
  CDT-3269                    0.34      0.36      0.36      0.01         0.08
  CDT-3319                    5.98      5.98      6.73      0.01         0.01
  CDT-3321                    6.66      6.73      6.66     10.82         6.63
  CDT-3333                    0.01      0.01     10.13      0.01         0.01
  CDT-3357                    0.01      0.01     10.88      0.01         0.01
  CDT-3425                    0.01      0.01      8.06      0.01         0.01
  CDT-3433                    0.01      0.01     10.66      0.01         0.01
  CDT-3525                    0.01      0.01      0.01      0.01         0.01
  CDT-3527                    0.02      0.02      0.26      0.01         0.01
  CDT-3581                    0.46      0.48      1.51      0.01         0.01
  CDT-3649                    1.49      3.63      1.49      4.55         1.49
  CDT-3651                    1.49      1.49      1.82      0.01         0.01
  CDT-3653                    2.61      2.61      3.00      0.01         0.01
  CDT-3659                    5.31      5.31      5.91      0.01         0.01
  CDT-3661                    1.89      1.90      2.60      0.01         0.01
  CDT-3663                    2.52      3.02      2.52      2.58         2.38
  CDT-3681                    1.20      1.22      2.74      0.01         0.07
  CDT-3683                    2.94      2.94      3.63      0.01         0.24
  CDT-3687                    0.32      0.32      0.76      0.01         0.01
  CDT-3715                    0.01      0.01      1.53      0.01         0.01
  CDT-3717                    1.53      1.53      2.54      0.01         0.01
  CDT-3719                    2.54      2.54      2.88      0.01         0.02
  CDT-3721                    4.18      4.18      4.45      0.01         0.01
  CDT-3761                    1.48      1.48      2.25      0.01         0.06
  CDT-3763                    1.84      1.84      3.43      0.01         0.56
  CDT-3765                    3.23      3.23      4.26      0.01         0.53
  CDT-3773                    1.31      1.37      1.31      2.87         1.31
  CDT-3775                    0.01      0.01      1.37      0.01         0.01
  CDT-3779                    0.01      0.01      1.21      0.01         0.01
  CDT-3781                    1.18      1.21      1.95      0.01         0.15
  CDT-4331                    0.01      0.01      0.01      2.82         0.01
  CDT-4673                    0.01      0.01     33.68      0.01         0.01
  CDT-4675                   31.50     33.67     44.92      0.01         3.85
  CDT-4677                   39.06     44.92     41.89      0.01         7.66
  CDT-4679                   40.54     41.89     46.44      0.01        13.97
  CDT-4767                   33.11     33.11     40.88      0.03         0.01
  CDT-4769                   40.88     40.88     47.99      0.07         0.01
  CDT-4865                    0.01      0.01      0.01     47.62         0.01
  CDT-504                     1.05      1.05      3.63      0.01         0.01
  CDT-5047                    0.01      0.01      8.94      0.01         0.01
  CDT-5951                    0.01      0.01     46.40      0.01         0.01
  CDT-6193                    0.01      0.01     47.91      0.01         0.01
  CDT-6209                    0.01      0.01      9.50      0.01         0.01
  CDT-6239                    0.01      0.01      0.77      0.01         0.01
  CDT-6241                    0.39      0.39      1.43      0.01         0.01
  CDT-6251                    1.91      1.92      3.90      0.01         0.03
  CDT-6253                    3.89      3.89      9.69      0.01         0.01
  CDT-6457                    1.22      1.22      3.49      0.01         0.01
  CDT-6459                    3.49      3.49      4.42      0.01         0.01
  CDT-6461                    0.88      0.88      1.97      0.01         0.01
  CDT-652                     0.01      0.01      3.77      0.01         0.01
  CDT-654                     0.66      3.77      0.66      3.97         0.66
  CDT-658                     0.01      0.01      0.78      0.01         0.01
  CDT-660                     0.78      0.78      2.28      0.01         0.01
  CDT-662                     2.28      2.28      7.11      0.66         0.66
  CDT-664                     0.01      0.01      0.78      0.01         0.01
  CDT-666                     0.01      0.01      1.53      0.01         0.01
  CDT-668                     6.14      6.19      7.03      0.01         0.15
  CDT-6707                    0.01      0.01      0.41      0.01         0.01
  CDT-6709                    2.29      2.31      3.93      0.01         0.36
  CDT-6737                    2.52      2.52      3.17      0.01         0.03
  CDT-6739                    3.17      3.17      5.58      2.46         2.42
  CDT-6755                    4.65      4.65      4.68      6.27         1.79
  CDT-6761                    4.87      4.87      5.12      0.01         0.09
  CDT-6763                    3.90      3.90      5.12      0.01         0.01
  CDT-6767                    8.35      8.35     10.11      0.01         0.31
  CDT-6771                    9.64      9.91      9.64     47.57         7.91
  CDT-6773                    9.51      9.64      9.99      0.05         0.36
  CDT-6775                    9.95      9.99     10.12      0.01         0.41
  CDT-6777                   10.12     10.12     10.18      0.01         0.47
  CDT-6783                    9.05      9.05     10.18      0.01         0.01
  CDT-6793                    5.31      5.31     10.38      0.01         0.01
  CDT-6795                   10.18     10.18     10.18      8.37         7.84
  CDT-6797                   10.18     10.18     10.20      6.86         6.62
  CDT-6799                   10.18     10.20     10.18     10.31         9.64
  CDT-6805                    0.01      0.01      0.18      0.01         0.01
  CDT-6807                    3.01      3.01      3.11      0.02         0.41
  CDT-6815                    0.01      0.01      1.98      0.01         0.01
  CDT-6825                    0.10      0.11      0.24      0.01         0.01
  CDT-6827                    0.23      0.24      0.48      0.01         0.04
  CDT-6829                    0.01      0.01      2.32      0.01         0.01
  CDT-6843                    1.88      1.88      2.01      0.01         0.01
  CDT-6845                    3.46      3.46     10.18      0.01         0.01
  CDT-6847                    6.69      6.69      8.12      0.19         0.76
  CDT-6849                    5.23      5.23      6.69      0.20         0.67
  CDT-6851                    2.57      2.57      5.23      0.01         0.04
  CDT-6853                    0.35      0.35      2.58      0.01         0.01
  CDT-6857                    2.58      2.58      3.53      0.01         0.61
  CDT-6859                    8.72      8.72      8.97      5.69         5.42
  CDT-6861                    7.50      7.97      7.88      0.64         1.02
  CDT-6863                    7.71      7.88      8.37      0.41         1.25
  CDT-6865                    8.54      8.54      8.90      0.33         1.34
  CDT-6867                    8.67      8.67      8.86      5.44         5.61
  CDT-6869                    8.52      8.59      8.67      0.58         1.50
  CDT-6871                    0.01      0.01      6.33      0.01         0.01
  CDT-6875                    0.01      0.01      1.90      0.01         0.01
  CDT-6879                    1.33      1.34      5.45      0.01         0.01
  CDT-6897                    0.01      0.01      1.41      0.01         0.01
  CDT-6899                    0.01      1.41      0.01      0.01         0.01
  CDT-6901                    1.40      1.50      1.40      1.70         1.40
  CDT-6903                    0.01      0.01      0.46      0.01         0.01
  CDT-698                     0.77      0.77      1.75      0.01         0.01
  CDT-6993                    0.01      0.01     43.60      0.01         0.01
  CDT-6995                   46.21     46.21     47.01      0.01         0.01
  CDT-700                     1.75      1.75      5.26      0.01         0.01
  CDT-7085                    0.01      0.01      0.26      0.01         0.01
  CDT-7087                    0.11      0.13      0.27      0.01         0.03
  CDT-7097                    0.01      0.01      0.26      0.01         0.01
  CDT-7101                    0.01      0.01      2.48      0.01         0.01
  CDT-7125                    0.01      0.01     10.88      0.01         0.01
  CDT-7139                    0.01      0.01      2.35      0.01         0.01
  CDT-7149                    1.96      2.35      1.96     10.85         1.96
  CDT-7151                    0.01      0.01      1.96      0.01         0.01
  CDT-7153                    1.96      1.96      2.13      0.01         0.01
  CDT-7155                    0.01      0.01      0.01      1.84         0.01
  CDT-7157                    0.01      0.01      3.46      0.01         0.01
  CDT-7163                    0.01      0.01      1.60      0.01         0.01
  CDT-7185                    1.79      1.79      8.12      0.01         0.01
  CDT-7189                    1.18      1.18      3.48      0.26         0.23
  CDT-7199                    0.83      0.83      5.44      0.01         0.01
  CDT-7253                    0.01      1.31      0.01      5.14         0.01
  CDT-7424                   25.69     26.71     46.44      0.01         0.05
  CDT-7426                   23.89     33.68     26.72     46.96        22.23
  CDT-7470                    9.53      9.53     10.32      0.01         0.28
  CDT-7472                    0.01      0.01      4.15      0.01         0.01
  CDT-7474                    9.53      9.53     10.16      0.01         0.34
  CDT-7644                    0.01      0.01     43.38      0.01         0.01
  CDT-7670                    4.30      4.30     10.77      0.01         0.04
  CDT-7672                    0.01      0.01     47.00      0.01         0.01
  CDT-7692                    9.50      9.50     47.66      0.01         0.01
  
  
  ***************
  Pumping Summary
  ***************
  
  ---------------------------------------------------------------------------------------------------------
                                                  Min       Avg       Max     Total     Power    % Time Off
                        Percent   Number of      Flow      Flow      Flow    Volume     Usage    Pump Curve
  Pump                 Utilized   Start-Ups       CFS       CFS       CFS  10^6 gal     Kw-hr    Low   High
  ---------------------------------------------------------------------------------------------------------
  CDT-5261               100.00           1      0.00      0.12      0.16     0.154     27.93    0.0    0.0
  PUMP-11                100.00           1      0.00      0.04      0.04     0.051      5.56    0.0    0.0
  PUMP-13                100.00           1      0.00      0.04      0.04     0.050      5.57    0.0    0.0
  PUMP-15                100.00           1      0.00      6.33      8.20     7.953   1220.15    0.0    0.0
  

  Analysis begun on:  Wed Jun 24 14:55:34 2026
  Analysis ended on:  Wed Jun 24 14:56:25 2026
  Total elapsed time: 00:00:51