
  EPA STORM WATER MANAGEMENT MODEL - VERSION 5.2 (Build 5.2.4)
  ------------------------------------------------------------

  WARNING 04: minimum elevation drop used for Conduit t140.1
  WARNING 04: minimum elevation drop used for Conduit t140.2
  WARNING 04: minimum elevation drop used for Conduit XXXXX00333.1
  WARNING 04: minimum elevation drop used for Conduit XXXXX02963.1
  WARNING 04: minimum elevation drop used for Conduit XXXXX02974.1
  WARNING 04: minimum elevation drop used for Conduit XXXXX02992.1
  WARNING 04: minimum elevation drop used for Conduit XXXXX02992.2
  WARNING 04: minimum elevation drop used for Conduit XXXXX03125.1
  WARNING 04: minimum elevation drop used for Conduit XXXXX03125.2
  WARNING 04: minimum elevation drop used for Conduit XXXXX03197.1
  WARNING 04: minimum elevation drop used for Conduit XXXXX03197.2
  WARNING 04: minimum elevation drop used for Conduit XXXXX03283.1
  WARNING 04: minimum elevation drop used for Conduit XXXXX03287.1
  WARNING 04: minimum elevation drop used for Conduit XXXXX03299.1
  WARNING 04: minimum elevation drop used for Conduit XXXXX03300.1
  WARNING 04: minimum elevation drop used for Conduit XXXXX03305.1
  WARNING 04: minimum elevation drop used for Conduit XXXXX03312.1
  WARNING 04: minimum elevation drop used for Conduit XXXXX03321.2
  WARNING 04: minimum elevation drop used for Conduit XXXXX03323.1
  WARNING 04: minimum elevation drop used for Conduit XXXXX03329.2
  WARNING 04: minimum elevation drop used for Conduit XXXXX03429.1
  WARNING 04: minimum elevation drop used for Conduit XXXXX03430.1
  WARNING 04: minimum elevation drop used for Conduit XXXXX03444.1
  
  ****************
  Analysis Options
  ****************
  Flow Units ............... CMS
  Process Models:
    Rainfall/Runoff ........ YES
    RDII ................... NO
    Snowmelt ............... NO
    Groundwater ............ NO
    Flow Routing ........... YES
    Ponding Allowed ........ YES
    Water Quality .......... NO
  Infiltration Method ...... HORTON
  Flow Routing Method ...... KINWAVE
  Starting Date ............ 12/12/2018 00:00:00
  Ending Date .............. 12/13/2018 00:00:00
  Antecedent Dry Days ...... 0.0
  Report Time Step ......... 00:15:00
  Wet Time Step ............ 00:05:00
  Dry Time Step ............ 01:00:00
  Routing Time Step ........ 30.00 sec
  
  
  ERROR 133: Node XXXXX03230 has more than one outlet link.
  
  ERROR 133: Node XXXXX03231 has more than one outlet link.
  
  ERROR 133: Node XXXXX03243 has more than one outlet link.
  
  ERROR 133: Node XXXXX03244 has more than one outlet link.
  
  ERROR 133: Node XXXXX03452 has more than one outlet link.
  
  ERROR 133: Node a18 has more than one outlet link.
  
  ERROR 133: Node XXXXX00309 has more than one outlet link.
  
  ERROR 133: Node 4-058 has more than one outlet link.
  
  ERROR 133: Node 4-059 has more than one outlet link.
  
  ERROR 133: Node 4-060 has more than one outlet link.
  
  ERROR 133: Node XXXXX00236 has more than one outlet link.
  
  ERROR 133: Node XXXXX00237 has more than one outlet link.
  
  ERROR 133: Node XXXXX00238 has more than one outlet link.
  
  ERROR 133: Node XXXXX00248 has more than one outlet link.
  
  ERROR 133: Node XXXXX00249 has more than one outlet link.
  
  ERROR 133: Node XXXXX00250 has more than one outlet link.
  
  ERROR 133: Node XXXXX00252 has more than one outlet link.
  
  ERROR 133: Node XXXXX00254 has more than one outlet link.
  
  ERROR 133: Node XXXXX00262 has more than one outlet link.
  
  ERROR 133: Node XXXXX00268 has more than one outlet link.
  
  ERROR 133: Node XXXXX00269 has more than one outlet link.
  
  ERROR 133: Node XXXXX00277 has more than one outlet link.
  
  ERROR 133: Node XXXXX00280 has more than one outlet link.
  
  ERROR 133: Node XXXXX00281 has more than one outlet link.
  
  ERROR 133: Node XXXXX00295 has more than one outlet link.
  
  ERROR 133: Node XXXXX00296 has more than one outlet link.
  
  ERROR 133: Node XXXXX00298 has more than one outlet link.
  
  ERROR 133: Node XXXXX00299 has more than one outlet link.
  
  ERROR 133: Node XXXXX00300 has more than one outlet link.
  
  ERROR 133: Node XXXXX00301 has more than one outlet link.
  
  ERROR 133: Node XXXXX00302 has more than one outlet link.
  
  ERROR 133: Node XXXXX00303 has more than one outlet link.
  
  ERROR 133: Node XXXXX00304 has more than one outlet link.
  
  ERROR 133: Node XXXXX00305 has more than one outlet link.
  
  ERROR 133: Node XXXXX00306 has more than one outlet link.
  
  ERROR 133: Node XXXXX02833 has more than one outlet link.
  
  ERROR 133: Node XXXXX02851 has more than one outlet link.
  
  ERROR 133: Node XXXXX02854 has more than one outlet link.
  
  ERROR 133: Node XXXXX02855 has more than one outlet link.
  
  ERROR 133: Node XXXXX02865 has more than one outlet link.
  
  ERROR 133: Node XXXXX02866 has more than one outlet link.
  
  ERROR 133: Node XXXXX02868 has more than one outlet link.
  
  ERROR 133: Node XXXXX02871 has more than one outlet link.
  
  ERROR 133: Node XXXXX02872 has more than one outlet link.
  
  ERROR 133: Node XXXXX02873 has more than one outlet link.
  
  ERROR 133: Node XXXXX02876 has more than one outlet link.
  
  ERROR 133: Node XXXXX02884 has more than one outlet link.
  
  ERROR 133: Node XXXXX02887 has more than one outlet link.
  
  ERROR 133: Node XXXXX02889 has more than one outlet link.
  
  ERROR 133: Node XXXXX02893 has more than one outlet link.
  
  ERROR 133: Node XXXXX02897 has more than one outlet link.
  
  ERROR 133: Node XXXXX02899 has more than one outlet link.
  
  ERROR 133: Node XXXXX02901 has more than one outlet link.
  
  ERROR 133: Node XXXXX02907 has more than one outlet link.
  
  ERROR 133: Node XXXXX02909 has more than one outlet link.
  
  ERROR 133: Node XXXXX02910 has more than one outlet link.
  
  ERROR 133: Node XXXXX02911 has more than one outlet link.
  
  ERROR 133: Node XXXXX02912 has more than one outlet link.
  
  ERROR 133: Node XXXXX02918 has more than one outlet link.
  
  ERROR 133: Node XXXXX02923 has more than one outlet link.
  
  ERROR 133: Node XXXXX02924 has more than one outlet link.
  
  ERROR 133: Node XXXXX02926 has more than one outlet link.
  
  ERROR 133: Node XXXXX02927 has more than one outlet link.
  
  ERROR 133: Node XXXXX02928 has more than one outlet link.
  
  ERROR 133: Node XXXXX02931 has more than one outlet link.
  
  ERROR 133: Node XXXXX02932 has more than one outlet link.
  
  ERROR 133: Node XXXXX02933 has more than one outlet link.
  
  ERROR 133: Node XXXXX02935 has more than one outlet link.
  
  ERROR 133: Node XXXXX02937 has more than one outlet link.
  
  ERROR 133: Node XXXXX02949 has more than one outlet link.
  
  ERROR 133: Node XXXXX03005 has more than one outlet link.
  
  ERROR 133: Node XXXXX03006 has more than one outlet link.
  
  ERROR 133: Node XXXXX03010 has more than one outlet link.
  
  ERROR 133: Node XXXXX03011 has more than one outlet link.
  
  ERROR 133: Node XXXXX03012 has more than one outlet link.
  
  ERROR 133: Node XXXXX03014 has more than one outlet link.
  
  ERROR 133: Node XXXXX03017 has more than one outlet link.
  
  ERROR 133: Node XXXXX03020 has more than one outlet link.
  
  ERROR 133: Node XXXXX03022 has more than one outlet link.
  
  ERROR 133: Node XXXXX03024 has more than one outlet link.
  
  ERROR 133: Node XXXXX03025 has more than one outlet link.
  
  ERROR 133: Node XXXXX03027 has more than one outlet link.
  
  ERROR 133: Node XXXXX03028 has more than one outlet link.
  
  ERROR 133: Node XXXXX03029 has more than one outlet link.
  
  ERROR 133: Node XXXXX03030 has more than one outlet link.
  
  ERROR 133: Node XXXXX03032 has more than one outlet link.
  
  ERROR 133: Node XXXXX03034 has more than one outlet link.
  
  ERROR 133: Node XXXXX03035 has more than one outlet link.
  
  ERROR 133: Node XXXXX03036 has more than one outlet link.
  
  ERROR 133: Node XXXXX03038 has more than one outlet link.
  
  ERROR 133: Node XXXXX03041 has more than one outlet link.
  
  ERROR 133: Node XXXXX03045 has more than one outlet link.
  
  ERROR 133: Node XXXXX03048 has more than one outlet link.
  
  ERROR 133: Node XXXXX03050 has more than one outlet link.
  
  ERROR 133: Node XXXXX03051 has more than one outlet link.
  
  ERROR 133: Node XXXXX03053 has more than one outlet link.
  
  ERROR 133: Node XXXXX03054 has more than one outlet link.
  
  ERROR 133: Node XXXXX03056 has more than one outlet link.
  
  ERROR 133: Node XXXXX03057 has more than one outlet link.
  
  ERROR 133: Node XXXXX03058 has more than one outlet link.
  
  ERROR 133: Node XXXXX03061 has more than one outlet link.
  
  ERROR 133: Node XXXXX03063 has more than one outlet link.
  
  ERROR 133: Node XXXXX03066 has more than one outlet link.
  
  ERROR 133: Node XXXXX03067 has more than one outlet link.
  
  ERROR 133: Node XXXXX03068 has more than one outlet link.
  
  ERROR 133: Node XXXXX03073 has more than one outlet link.
  
  ERROR 133: Node XXXXX03077 has more than one outlet link.
  
  ERROR 133: Node XXXXX03078 has more than one outlet link.
  
  ERROR 133: Node XXXXX03079 has more than one outlet link.
  
  ERROR 133: Node XXXXX03080 has more than one outlet link.
  
  ERROR 133: Node XXXXX03081 has more than one outlet link.
  
  ERROR 133: Node XXXXX03083 has more than one outlet link.
  
  ERROR 133: Node XXXXX03086 has more than one outlet link.
  
  ERROR 133: Node XXXXX03092 has more than one outlet link.
  
  ERROR 133: Node XXXXX03093 has more than one outlet link.
  
  ERROR 133: Node XXXXX03095 has more than one outlet link.
  
  ERROR 133: Node XXXXX03116 has more than one outlet link.
  
  ERROR 133: Node XXXXX03117 has more than one outlet link.
  
  ERROR 133: Node XXXXX03118 has more than one outlet link.
  
  ERROR 133: Node XXXXX03119 has more than one outlet link.
  
  ERROR 133: Node XXXXX03120 has more than one outlet link.
  
  ERROR 133: Node XXXXX03121 has more than one outlet link.
  
  ERROR 133: Node XXXXX03125 has more than one outlet link.
  
  ERROR 133: Node XXXXX03134 has more than one outlet link.
  
  ERROR 133: Node XXXXX03147 has more than one outlet link.
  
  ERROR 133: Node XXXXX03150 has more than one outlet link.
  
  ERROR 133: Node XXXXX03151 has more than one outlet link.
  
  ERROR 133: Node XXXXX03157 has more than one outlet link.
  
  ERROR 133: Node XXXXX03172 has more than one outlet link.
  
  ERROR 133: Node XXXXX03173 has more than one outlet link.
  
  ERROR 133: Node XXXXX03177 has more than one outlet link.
  
  ERROR 133: Node XXXXX03182 has more than one outlet link.
  
  ERROR 133: Node XXXXX03183 has more than one outlet link.
  
  ERROR 133: Node XXXXX03184 has more than one outlet link.
  
  ERROR 133: Node XXXXX03188 has more than one outlet link.
  
  ERROR 133: Node XXXXX03189 has more than one outlet link.
  
  ERROR 133: Node XXXXX03191 has more than one outlet link.
  
  ERROR 133: Node XXXXX03193 has more than one outlet link.
  
  ERROR 133: Node XXXXX03194 has more than one outlet link.
  
  ERROR 133: Node XXXXX03195 has more than one outlet link.
  
  ERROR 133: Node XXXXX03211 has more than one outlet link.
  
  ERROR 133: Node XXXXX03236 has more than one outlet link.
  
  ERROR 133: Node XXXXX03255 has more than one outlet link.
  
  ERROR 133: Node XXXXX03267 has more than one outlet link.
  
  ERROR 133: Node XXXXX03269 has more than one outlet link.
  
  ERROR 133: Node XXXXX03275 has more than one outlet link.
  
  ERROR 133: Node XXXXX03279 has more than one outlet link.
  
  ERROR 133: Node XXXXX03280 has more than one outlet link.
  
  ERROR 133: Node XXXXX03358 has more than one outlet link.
  
  ERROR 133: Node XXXXX03360 has more than one outlet link.
  
  ERROR 133: Node XXXXX03366 has more than one outlet link.
  
  ERROR 133: Node t016 has more than one outlet link.
  
  ERROR 133: Node t137 has more than one outlet link.
  
  ERROR 133: Node t138 has more than one outlet link.
  
  ERROR 133: Node t139 has more than one outlet link.
  
  ERROR 133: Node t140 has more than one outlet link.
  
  ERROR 133: Node t146 has more than one outlet link.
  
  ERROR 133: Node t162 has more than one outlet link.
  
  ERROR 133: Node a011 has more than one outlet link.
  
  ERROR 133: Node a105 has more than one outlet link.
  
  ERROR 133: Node a106 has more than one outlet link.
  
  ERROR 133: Node pm003 has more than one outlet link.
  
  ERROR 133: Node pm004 has more than one outlet link.
  
  ERROR 133: Node pm005 has more than one outlet link.
  
  ERROR 133: Node pm006 has more than one outlet link.
  
  ERROR 133: Node pm080 has more than one outlet link.
  
  ERROR 133: Node pm081 has more than one outlet link.
  
  ERROR 133: Node pm140 has more than one outlet link.
  
  ERROR 133: Node pm142 has more than one outlet link.
  
  ERROR 133: Node pm144 has more than one outlet link.
  
  ERROR 133: Node XXXXX00243 has more than one outlet link.
  
  ERROR 133: Node XXXXX00244 has more than one outlet link.
  
  ERROR 133: Node XXXXX00246 has more than one outlet link.
  
  ERROR 133: Node XXXXX00316 has more than one outlet link.
  
  ERROR 133: Node XXXXX00318 has more than one outlet link.
  
  ERROR 133: Node XXXXX00322 has more than one outlet link.
  
  ERROR 133: Node XXXXX00327 has more than one outlet link.
  
  ERROR 133: Node XXXXX00328 has more than one outlet link.
  
  ERROR 133: Node XXXXX00329 has more than one outlet link.
  
  ERROR 133: Node XXXXX00331 has more than one outlet link.
  
  ERROR 133: Node XXXXX02834 has more than one outlet link.
  
  ERROR 133: Node XXXXX02835 has more than one outlet link.
  
  ERROR 133: Node XXXXX02840 has more than one outlet link.
  
  ERROR 133: Node XXXXX02841 has more than one outlet link.
  
  ERROR 133: Node XXXXX02842 has more than one outlet link.
  
  ERROR 133: Node XXXXX02843 has more than one outlet link.
  
  ERROR 133: Node XXXXX02848 has more than one outlet link.
  
  ERROR 133: Node XXXXX02952 has more than one outlet link.
  
  ERROR 133: Node XXXXX02956 has more than one outlet link.
  
  ERROR 133: Node XXXXX02961 has more than one outlet link.
  
  ERROR 133: Node XXXXX02965 has more than one outlet link.
  
  ERROR 133: Node XXXXX02971 has more than one outlet link.
  
  ERROR 133: Node XXXXX02973 has more than one outlet link.
  
  ERROR 133: Node XXXXX02976 has more than one outlet link.
  
  ERROR 133: Node XXXXX02977 has more than one outlet link.
  
  ERROR 133: Node XXXXX02979 has more than one outlet link.
  
  ERROR 133: Node XXXXX02982 has more than one outlet link.
  
  ERROR 133: Node XXXXX02983 has more than one outlet link.
  
  ERROR 133: Node XXXXX02985 has more than one outlet link.
  
  ERROR 133: Node XXXXX02986 has more than one outlet link.
  
  ERROR 133: Node XXXXX02987 has more than one outlet link.
  
  ERROR 133: Node XXXXX02989 has more than one outlet link.
  
  ERROR 133: Node XXXXX02991 has more than one outlet link.
  
  ERROR 133: Node XXXXX02992 has more than one outlet link.
  
  ERROR 133: Node XXXXX02993 has more than one outlet link.
  
  ERROR 133: Node XXXXX02997 has more than one outlet link.
  
  ERROR 133: Node XXXXX02999 has more than one outlet link.
  
  ERROR 133: Node XXXXX03000 has more than one outlet link.
  
  ERROR 133: Node XXXXX03103 has more than one outlet link.
  
  ERROR 133: Node XXXXX03105 has more than one outlet link.
  
  ERROR 133: Node XXXXX03106 has more than one outlet link.
  
  ERROR 133: Node XXXXX03107 has more than one outlet link.
  
  ERROR 133: Node XXXXX03108 has more than one outlet link.
  
  ERROR 133: Node XXXXX03109 has more than one outlet link.
  
  ERROR 133: Node XXXXX03197 has more than one outlet link.
  
  ERROR 133: Node XXXXX03202 has more than one outlet link.
  
  ERROR 133: Node XXXXX03204 has more than one outlet link.
  
  ERROR 133: Node XXXXX03207 has more than one outlet link.
  
  ERROR 133: Node XXXXX03208 has more than one outlet link.
  
  ERROR 133: Node XXXXX03209 has more than one outlet link.
  
  ERROR 133: Node XXXXX03210 has more than one outlet link.
  
  ERROR 133: Node XXXXX03234 has more than one outlet link.
  
  ERROR 133: Node XXXXX03235 has more than one outlet link.
  
  ERROR 133: Node XXXXX03248 has more than one outlet link.
  
  ERROR 133: Node XXXXX03249 has more than one outlet link.
  
  ERROR 133: Node XXXXX03250 has more than one outlet link.
  
  ERROR 133: Node XXXXX03251 has more than one outlet link.
  
  ERROR 133: Node XXXXX03253 has more than one outlet link.
  
  ERROR 133: Node XXXXX03254 has more than one outlet link.
  
  ERROR 133: Node XXXXX03260 has more than one outlet link.
  
  ERROR 133: Node XXXXX03263 has more than one outlet link.
  
  ERROR 133: Node XXXXX03277 has more than one outlet link.
  
  ERROR 133: Node XXXXX03278 has more than one outlet link.
  
  ERROR 133: Node XXXXX03400 has more than one outlet link.
  
  ERROR 133: Node XXXXX03407 has more than one outlet link.
  
  ERROR 133: Node XXXXX03409 has more than one outlet link.
  
  ERROR 133: Node XXXXX03410 has more than one outlet link.
  
  ERROR 133: Node XXXXX03413 has more than one outlet link.
  
  ERROR 133: Node XXXXX03419 has more than one outlet link.
  
  ERROR 133: Node XXXXX03447 has more than one outlet link.
  
  ERROR 133: Node XXXXX03462 has more than one outlet link.
  
  ERROR 133: Node XXXXX03464 has more than one outlet link.
  
  ERROR 133: Node XXXXX03465 has more than one outlet link.
  
  ERROR 133: Node 1128 has more than one outlet link.
  
  ERROR 133: Node t129 has more than one outlet link.
  
  ERROR 133: Node a016 has more than one outlet link.
  
  ERROR 133: Node pm008 has more than one outlet link.
  
  ERROR 133: Node pm074 has more than one outlet link.
  
  ERROR 133: Node XXXXX03404 has more than one outlet link.
  
  ERROR 133: Node XXXXX00310 has more than one outlet link.
  
  ERROR 115: adverse slope for Conduit XXXXX03426.1.
  
  ERROR 139: Regulator WH-6.2 is the outlet of a non-storage node.

  Analysis begun on:  Wed Jun 24 14:56:25 2026
  Analysis ended on:  Wed Jun 24 14:56:25 2026
  Total elapsed time: < 1 sec