
  EPA STORM WATER MANAGEMENT MODEL - VERSION 5.2 (Build 5.2.4)
  ------------------------------------------------------------

  
  ERROR 209: undefined object 1.0 at line 57 of [SUBCATCHMENT] section:
  15AN104#1        100yrDesignStorm 15AN104          0.497    35       99.1     1.35     0        1.0             

  
  ERROR 209: undefined object 1.0 at line 58 of [SUBCATCHMENT] section:
  15AN105#1        100yrDesignStorm 15AN105          0.535    35       88.4     1.15     0        1.0             

  
  ERROR 209: undefined object 1.0 at line 59 of [SUBCATCHMENT] section:
  15AN106#1        100yrDesignStorm 15AN106          0.765    35       56.4     0.9      0        1.0             

  
  ERROR 209: undefined object 1.0 at line 60 of [SUBCATCHMENT] section:
  15AN103#1        100yrDesignStorm 15AN103          0.462    35       76.2     0.15     0        1.0             

  
  ERROR 209: undefined object 1.0 at line 61 of [SUBCATCHMENT] section:
  15AN107#1        100yrDesignStorm 15AN107          0.747    35       64       1.5      0        1.0             

  
  ERROR 209: undefined object 1.0 at line 62 of [SUBCATCHMENT] section:
  15AN111#1        100yrDesignStorm 15AN111          1.181    35       99.1     0.09     0        1.0             

  
  ERROR 209: undefined object 1.0 at line 63 of [SUBCATCHMENT] section:
  15AN1122#1       100yrDesignStorm 15AN1122         1.187    35       54.9     0.03     0        1.0             

  
  ERROR 209: undefined object 1.0 at line 64 of [SUBCATCHMENT] section:
  15AN114#1        100yrDesignStorm 15AN114          0.588    35       61       0.07     0        1.0             

  
  ERROR 209: undefined object 1.0 at line 65 of [SUBCATCHMENT] section:
  15AN110#1        100yrDesignStorm 15AN110          1.026    35       134      0.03     0        1.0             

  
  ERROR 209: undefined object 1.0 at line 66 of [SUBCATCHMENT] section:
  15AN109#1        100yrDesignStorm 15AN109          0.624    35       102      2.15     0        1.0             

  
  ERROR 209: undefined object 1.0 at line 67 of [SUBCATCHMENT] section:
  15AN108#1        100yrDesignStorm 15AN108          0.51     35       73.2     2.5      0        1.0             

  
  ERROR 209: undefined object 1.0 at line 68 of [SUBCATCHMENT] section:
  15AN113#1        100yrDesignStorm 15AN113          0.416    35       65.5     2.25     0        1.0             

  
  ERROR 209: undefined object 1.0 at line 69 of [SUBCATCHMENT] section:
  15AN115#1        100yrDesignStorm 15AN115          1.152    35       113      0.01     0        1.0             

  
  ERROR 209: undefined object 1.0 at line 70 of [SUBCATCHMENT] section:
  15AN116#1        100yrDesignStorm 15AN116          1.421    35       133      0.55     0        1.0             

  
  ERROR 209: undefined object 1.0 at line 71 of [SUBCATCHMENT] section:
  15AN117#1        100yrDesignStorm 15AN117          0.851    35       140      0.75     0        1.0             

  
  ERROR 209: undefined object 1.0 at line 72 of [SUBCATCHMENT] section:
  15AN117#2        100yrDesignStorm 15AN117          0.591    35       51.8     0.12     0        1.0             

  
  ERROR 209: undefined object 1.0 at line 73 of [SUBCATCHMENT] section:
  15AN120#1        100yrDesignStorm 15AN120          0.468    35       83.8     2.18     0        1.0             

  
  ERROR 209: undefined object 1.0 at line 74 of [SUBCATCHMENT] section:
  15AN121#1        100yrDesignStorm 15AN121          0.718    35       82.3     0.55     0        1.0             

  
  ERROR 209: undefined object 1.0 at line 75 of [SUBCATCHMENT] section:
  15AN122#1        100yrDesignStorm 15AN122          0.713    35       85.3     0.39     0        1.0             

  
  ERROR 209: undefined object 1.0 at line 76 of [SUBCATCHMENT] section:
  15AN123#1        100yrDesignStorm 15AN123          0.626    35       74.7     0.12     0        1.0             

  
  ERROR 209: undefined object 1.0 at line 77 of [SUBCATCHMENT] section:
  15AN119#1        100yrDesignStorm 15AN119          0.592    35       59.4     0.41     0        1.0             

  
  ERROR 209: undefined object 1.0 at line 78 of [SUBCATCHMENT] section:
  15AN126#1        100yrDesignStorm 15AN126          0.878    35       125      2.37     0        1.0             

  
  ERROR 209: undefined object 1.0 at line 79 of [SUBCATCHMENT] section:
  15AN127#1        100yrDesignStorm 15AN127          1.505    35       152      0.47     0        1.0             

  
  ERROR 209: undefined object 1.0 at line 80 of [SUBCATCHMENT] section:
  15AN128#1        100yrDesignStorm 15AN128          1.325    35       136      0.32     0        1.0             

  
  ERROR 209: undefined object 1.0 at line 81 of [SUBCATCHMENT] section:
  15AN129#1        100yrDesignStorm 15AN129          1.103    35       113      0.07     0        1.0             

  
  ERROR 209: undefined object 1.0 at line 82 of [SUBCATCHMENT] section:
  15AN129#2        100yrDesignStorm 15AN129          0.426    35       39.6     0.07     0        1.0             

  
  ERROR 209: undefined object 1.0 at line 83 of [SUBCATCHMENT] section:
  15AN125#1        100yrDesignStorm 15AN125          0.388    35       62.4     0.27     0        1.0             

  
  ERROR 209: undefined object 1.0 at line 84 of [SUBCATCHMENT] section:
  15AN131#1        100yrDesignStorm 15AN131          0.543    35       77.7     0.27     0        1.0             

  
  ERROR 209: undefined object 1.0 at line 85 of [SUBCATCHMENT] section:
  15AN133#1        100yrDesignStorm 15AN133          0.828    35       148      3.21     0        1.0             

  
  ERROR 209: undefined object 1.0 at line 86 of [SUBCATCHMENT] section:
  15AN134#1        100yrDesignStorm 15AN134          1.369    35       130      0.76     0        1.0             

  
  ERROR 209: undefined object 1.0 at line 87 of [SUBCATCHMENT] section:
  15AN135#1        100yrDesignStorm 15AN135          0.997    35       104      0.38     0        1.0             

  
  ERROR 209: undefined object 1.0 at line 88 of [SUBCATCHMENT] section:
  15AN137#1        100yrDesignStorm 15AN137          1.362    35       119      0.01     0        1.0             

  
  ERROR 209: undefined object 1.0 at line 89 of [SUBCATCHMENT] section:
  15AN138#1        100yrDesignStorm 15AN138          1.168    35       114      0.01     0        1.0             

  
  ERROR 209: undefined object 1.0 at line 90 of [SUBCATCHMENT] section:
  15AN138#2        100yrDesignStorm 15AN138          0.522    35       39.6     0.25     0        1.0             

  
  ERROR 209: undefined object 1.0 at line 91 of [SUBCATCHMENT] section:
  15AN132#1        100yrDesignStorm 15AN132          0.428    35       71.6     0.7      0        1.0             

  
  ERROR 209: undefined object 1.0 at line 92 of [SUBCATCHMENT] section:
  15AN141#1        100yrDesignStorm 15AN141          0.529    35       62.5     1.45     0        1.0             

  
  ERROR 209: undefined object 1.0 at line 93 of [SUBCATCHMENT] section:
  15AN142#1        100yrDesignStorm 15AN142          0.624    35       74.7     1.51     0        1.0             

  
  ERROR 209: undefined object 1.0 at line 94 of [SUBCATCHMENT] section:
  15AN143#1        100yrDesignStorm 15AN143          0.713    35       86.9     1.58     0        1.0             

  
  ERROR 209: undefined object 1.0 at line 95 of [SUBCATCHMENT] section:
  15AN144#1        100yrDesignStorm 15AN144          0.775    35       76.2     0.46     0        1.0             

  
  ERROR 209: undefined object 1.0 at line 96 of [SUBCATCHMENT] section:
  15AN1361#1       100yrDesignStorm 15AN1361         0.501    35       47.2     0.04     0        1.0             

  
  ERROR 209: undefined object 1.0 at line 97 of [SUBCATCHMENT] section:
  15AN145#1        100yrDesignStorm 15AN145          0.684    35       79.2     0.74     0        1.0             

  
  ERROR 209: undefined object 1.0 at line 98 of [SUBCATCHMENT] section:
  15AN146#1        100yrDesignStorm 15AN146          0.5      35       90       0.01     0        1.0             

  
  ERROR 209: undefined object 1.0 at line 99 of [SUBCATCHMENT] section:
  15AN147#1        100yrDesignStorm 15AN147          0.412    35       90       0.01     0        1.0             

  
  ERROR 209: undefined object 1.0 at line 100 of [SUBCATCHMENT] section:
  15AN148#1        100yrDesignStorm 15AN148          0.792    35       48.8     0.44     0        1.0             

  
  ERROR 209: undefined object 1.0 at line 101 of [SUBCATCHMENT] section:
  15AN149#1        100yrDesignStorm 15AN149          0.515    35       53.3     1.82     0        1.0             

  
  ERROR 209: undefined object 1.0 at line 102 of [SUBCATCHMENT] section:
  15AN150#1        100yrDesignStorm 15AN150          0.739    35       53.3     0.9      0        1.0             

  
  ERROR 209: undefined object 1.0 at line 103 of [SUBCATCHMENT] section:
  15AN151#1        100yrDesignStorm 15AN151          0.593    35       71.6     0.01     0        1.0             

  
  ERROR 209: undefined object 1.0 at line 104 of [SUBCATCHMENT] section:
  15AN140#1        100yrDesignStorm 15AN140          0.265    35       30.5     0.74     0        1.0             

  
  ERROR 209: undefined object 1.0 at line 105 of [SUBCATCHMENT] section:
  15AN140#2        100yrDesignStorm 15AN140          1.355    35       74.7     1.26     0        1.0             

  
  ERROR 209: undefined object 1.0 at line 106 of [SUBCATCHMENT] section:
  15AN139#1        100yrDesignStorm 15AN139          2.069    35       90       0.27     0        1.0             

  
  ERROR 209: undefined object 1.0 at line 107 of [SUBCATCHMENT] section:
  15AN153#1        100yrDesignStorm 15AN153          0.372    35       36.6     1.87     0        1.0             

  
  ERROR 209: undefined object 1.0 at line 108 of [SUBCATCHMENT] section:
  15AN153#2        100yrDesignStorm 15AN153          1.171    35       94.5     1.48     0        1.0             

  
  ERROR 209: undefined object 1.0 at line 109 of [SUBCATCHMENT] section:
  15AN156#1        100yrDesignStorm 15AN156          0.44     35       42.7     0.41     0        1.0             

  
  ERROR 209: undefined object 1.0 at line 110 of [SUBCATCHMENT] section:
  15AN156#2        100yrDesignStorm 15AN156          1.435    35       83.8     2.21     0        1.0             

  
  ERROR 209: undefined object 1.0 at line 111 of [SUBCATCHMENT] section:
  15AN155#1        100yrDesignStorm 15AN155          0.817    35       57.9     1.07     0        1.0             

  
  ERROR 209: undefined object 1.0 at line 112 of [SUBCATCHMENT] section:
  15AN177#1        100yrDesignStorm 15AN177          0.599    35       57.9     0.63     0        1.0             

  
  ERROR 209: undefined object 1.0 at line 113 of [SUBCATCHMENT] section:
  15AN178#1        100yrDesignStorm 15AN178          0.488    35       47.2     2.06     0        1.0             

  
  ERROR 209: undefined object 1.0 at line 114 of [SUBCATCHMENT] section:
  15AN179#1        100yrDesignStorm 15AN179          0.468    35       45.7     0.15     0        1.0             

  
  ERROR 209: undefined object 1.0 at line 115 of [SUBCATCHMENT] section:
  15AN180#1        100yrDesignStorm 15AN180          0.524    35       51.8     0.15     0        1.0             

  
  ERROR 209: undefined object 1.0 at line 116 of [SUBCATCHMENT] section:
  15AN170#1        100yrDesignStorm 15AN170          0.954    35       154      0.01     0        1.0             

  
  ERROR 209: undefined object 1.0 at line 117 of [SUBCATCHMENT] section:
  15AN169#1        100yrDesignStorm 15AN169          0.482    35       79.2     1.05     0        1.0             

  
  ERROR 209: undefined object 1.0 at line 118 of [SUBCATCHMENT] section:
  15AN159#1        100yrDesignStorm 15AN159          0.426    35       41.1     1.41     0        1.0             

  
  ERROR 209: undefined object 1.0 at line 119 of [SUBCATCHMENT] section:
  15AN159#2        100yrDesignStorm 15AN159          0.456    35       42.7     0.01     0        1.0             

  
  ERROR 209: undefined object 1.0 at line 120 of [SUBCATCHMENT] section:
  15AN158#1        100yrDesignStorm 15AN158          1.322    35       105      0.5      0        1.0             

  
  ERROR 209: undefined object 1.0 at line 121 of [SUBCATCHMENT] section:
  15AN160#1        100yrDesignStorm 15AN160          0.832    35       80.8     0.52     0        1.0             

  
  ERROR 209: undefined object 1.0 at line 122 of [SUBCATCHMENT] section:
  15AN171#1        100yrDesignStorm 15AN171          1.061    35       102      0.92     0        1.0             

  
  ERROR 209: undefined object 1.0 at line 123 of [SUBCATCHMENT] section:
  15AN168#1        100yrDesignStorm 15AN168          1.449    35       85.3     0.63     0        1.0             

  
  ERROR 209: undefined object 1.0 at line 124 of [SUBCATCHMENT] section:
  15AN181#1        100yrDesignStorm 15AN181          0.478    35       45.7     0.15     0        1.0             

  
  ERROR 209: undefined object 1.0 at line 125 of [SUBCATCHMENT] section:
  15AN181#2        100yrDesignStorm 15AN181          0.386    35       51.8     0.01     0        1.0             

  
  ERROR 209: undefined object 1.0 at line 126 of [SUBCATCHMENT] section:
  15AN182#1        100yrDesignStorm 15AN182          0.499    35       48.8     0.36     0        1.0             

  
  ERROR 209: undefined object 1.0 at line 127 of [SUBCATCHMENT] section:
  15AN183#1        100yrDesignStorm 15AN183          0.486    35       48.8     0.01     0        1.0             

  
  ERROR 209: undefined object 1.0 at line 128 of [SUBCATCHMENT] section:
  15AN176#1        100yrDesignStorm 15AN176          1.46     35       80.8     0.08     0        1.0             

  
  ERROR 209: undefined object 1.0 at line 129 of [SUBCATCHMENT] section:
  15AN165#1        100yrDesignStorm 15AN165          0.989    35       65.5     0.08     0        1.0             

  
  ERROR 209: undefined object 1.0 at line 130 of [SUBCATCHMENT] section:
  15AN164#1        100yrDesignStorm 15AN164          0.498    35       48.8     0.47     0        1.0             

  
  ERROR 209: undefined object 1.0 at line 131 of [SUBCATCHMENT] section:
  15AN174#1        100yrDesignStorm 15AN174          0.969    35       96       0.01     0        1.0             

  
  ERROR 209: undefined object 1.0 at line 132 of [SUBCATCHMENT] section:
  15AN174#2        100yrDesignStorm 15AN174          0.398    35       54.9     0.99     0        1.0             

  
  ERROR 209: undefined object 1.0 at line 133 of [SUBCATCHMENT] section:
  15AN163#1        100yrDesignStorm 15AN163          0.299    35       29       0.71     0        1.0             

  
  ERROR 209: undefined object 1.0 at line 134 of [SUBCATCHMENT] section:
  15AN161#1        100yrDesignStorm 15AN161          0.635    35       61       1.2      0        1.0             

  
  ERROR 209: undefined object 1.0 at line 135 of [SUBCATCHMENT] section:
  15AN173#1        100yrDesignStorm 15AN173          1.454    35       80.8     0.08     0        1.0             

  
  ERROR 209: undefined object 1.0 at line 136 of [SUBCATCHMENT] section:
  15AN162#1        100yrDesignStorm 15AN162          0.928    35       90       0.01     0        1.0             

  
  ERROR 209: undefined object 1.0 at line 137 of [SUBCATCHMENT] section:
  15AN1514#1       100yrDesignStorm 15AN1514         2.532    35       71.6     0.01     0        1.0             

  
  ERROR 209: undefined object 1.0 at line 138 of [SUBCATCHMENT] section:
  15AN1561#1       100yrDesignStorm 15AN1561         3.988    35       269.2    0.29     0        1.0             

  
  ERROR 209: undefined object 1.0 at line 139 of [SUBCATCHMENT] section:
  15AN102#1        100yrDesignStorm 15AN102          0.841    35       83.8     0.35     0        1.0             

  
  ERROR 209: undefined object 1.0 at line 140 of [SUBCATCHMENT] section:
  15ESD09#1        100yrDesignStorm 15ESD09          110      30       500      0.5      0        1.0             

  
  ERROR 209: undefined object 1.0 at line 141 of [SUBCATCHMENT] section:
  15N432#1         100yrDesignStorm 15N432           0.87     35       60       2        0        1.0             

  
  ERROR 209: undefined object 1.0 at line 142 of [SUBCATCHMENT] section:
  15N432#2         100yrDesignStorm 15N432           0.81     35       60       2        0        1.0             

  
  ERROR 209: undefined object 1.0 at line 143 of [SUBCATCHMENT] section:
  15N422#1         100yrDesignStorm 15N422           4.338    15       190      2        0        1.0             

  
  ERROR 209: undefined object 1.0 at line 144 of [SUBCATCHMENT] section:
  15N416#1         100yrDesignStorm 15N416           4.538    10       260      2        0        1.0             

  
  ERROR 209: undefined object 1.0 at line 145 of [SUBCATCHMENT] section:
  15N404#1         100yrDesignStorm 15N404           5.31     35       200      2        0        1.0             

  
  ERROR 209: undefined object 1.0 at line 146 of [SUBCATCHMENT] section:
  15N433#1         100yrDesignStorm 15N433           1.152    35       90       2        0        1.0             

  
  ERROR 209: undefined object 1.0 at line 147 of [SUBCATCHMENT] section:
  15N431#1         100yrDesignStorm 15N431           1.361    35       90       2        0        1.0             

  
  ERROR 209: undefined object 1.0 at line 148 of [SUBCATCHMENT] section:
  15N431#2         100yrDesignStorm 15N431           0.601    35       40       2        0        1.0             

  
  ERROR 209: undefined object 1.0 at line 149 of [SUBCATCHMENT] section:
  15N425#1         100yrDesignStorm 15N425           1.32     35       100      2        0        1.0             

  
  ERROR 209: undefined object 1.0 at line 150 of [SUBCATCHMENT] section:
  15N428#1         100yrDesignStorm 15N428           4.083    40       200      2        0        1.0             

  
  ERROR 209: undefined object 1.0 at line 151 of [SUBCATCHMENT] section:
  15N427#1         100yrDesignStorm 15N427           2.819    35       120      2        0        1.0             

  
  ERROR 209: undefined object 1.0 at line 152 of [SUBCATCHMENT] section:
  15N418#1         100yrDesignStorm 15N418           2.38     35       100      2        0        1.0             

  
  ERROR 209: undefined object 1.0 at line 153 of [SUBCATCHMENT] section:
  15N405#1         100yrDesignStorm 15N405           1.433    35       120      2        0        1.0             

  
  ERROR 209: undefined object 1.0 at line 154 of [SUBCATCHMENT] section:
  15N407#1         100yrDesignStorm 15N407           2.833    30       110      2        0        1.0             

  
  ERROR 209: undefined object 1.0 at line 155 of [SUBCATCHMENT] section:
  15N403#1         100yrDesignStorm 15N403           2.408    30       110      2        0        1.0             

  
  ERROR 209: undefined object 1.0 at line 156 of [SUBCATCHMENT] section:
  15N420#1         100yrDesignStorm 15N420           2.493    30       180      2        0        1.0             

  
  Maximum error count exceeded.

  Analysis begun on:  Wed Jun 24 14:56:25 2026
  Analysis ended on:  Wed Jun 24 14:56:25 2026
  Total elapsed time: < 1 sec