
  EPA STORM WATER MANAGEMENT MODEL - VERSION 5.2 (Build 5.2.4)
  ------------------------------------------------------------

  
  ERROR 211: invalid number  at line 1199 of [XSECT] section:
  P10A-13-12       MODBASKETHANDLE 3.000000         8.000000   0.000000   0.000000   1          0         

  
  ERROR 211: invalid number  at line 1200 of [XSECT] section:
  P10A-15/1        MODBASKETHANDLE 3.000000         8.000000   0.000000   0.000000   1          0         


  Analysis begun on:  Wed Jun 24 14:58:04 2026
  Analysis ended on:  Wed Jun 24 14:58:04 2026
  Total elapsed time: < 1 sec