
  EPA STORM WATER MANAGEMENT MODEL - VERSION 5.2 (Build 5.2.4)
  ------------------------------------------------------------

  
  ****************
  Analysis Options
  ****************
  Flow Units ............... MGD
  Process Models:
    Rainfall/Runoff ........ YES
    RDII ................... NO
    Snowmelt ............... NO
    Groundwater ............ NO
    Flow Routing ........... YES
    Ponding Allowed ........ YES
    Water Quality .......... NO
  Infiltration Method ...... HORTON
  Flow Routing Method ...... DYNWAVE
  Surcharge Method ......... EXTRAN
  Starting Date ............ 12/15/2018 00:00:00
  Ending Date .............. 12/16/2018 00:00:00
  Antecedent Dry Days ...... 0.0
  Report Time Step ......... 00:15:00
  Wet Time Step ............ 00:05:00
  Dry Time Step ............ 01:00:00
  Routing Time Step ........ 30.00 sec
  Variable Time Step ....... YES
  Maximum Trials ........... 8
  Number of Threads ........ 1
  Head Tolerance ........... 0.005000 ft
  
  
  **************************        Volume         Depth
  Runoff Quantity Continuity     acre-feet        inches
  **************************     ---------       -------
  Total Precipitation ......     10727.274        36.500
  Evaporation Loss .........         0.000         0.000
  Infiltration Loss ........         0.000         0.000
  Surface Runoff ...........     10677.676        36.331
  Final Storage ............        52.845         0.180
  Continuity Error (%) .....        -0.030
  
  
  **************************        Volume        Volume
  Flow Routing Continuity        acre-feet      10^6 gal
  **************************     ---------     ---------
  Dry Weather Inflow .......         0.000         0.000
  Wet Weather Inflow .......     10674.508      3478.448
  Groundwater Inflow .......         0.000         0.000
  RDII Inflow ..............         0.000         0.000
  External Inflow ..........         0.000         0.000
  External Outflow .........      3624.893      1181.225
  Flooding Loss ............      4864.654      1585.220
  Evaporation Loss .........         0.000         0.000
  Exfiltration Loss ........         0.000         0.000
  Initial Stored Volume ....         0.000         0.000
  Final Stored Volume ......      2178.694       709.960
  Continuity Error (%) .....         0.059
  
  
  *************************
  Highest Continuity Errors
  *************************
  Node MH-32 (1.85%)
  Node MH-463 (1.02%)
  
  
  ***************************
  Time-Step Critical Elements
  ***************************
  Link MH2-1.1 (58.56%)
  Link MH1-38.1 (7.87%)
  Link MH-459.1 (3.79%)
  Link MH-108.1 (3.29%)
  Link MH-185.1 (2.57%)
  
  
  ********************************
  Highest Flow Instability Indexes
  ********************************
  Link MH1-8.1 (125)
  Link MH-440.1 (124)
  Link MH1-9.1 (119)
  Link MH1-7.1 (118)
  Link MH-556.2 (117)
  
  
  *********************************
  Most Frequent Nonconverging Nodes
  *********************************
  Node MH-II/68 (70.48%)
  Node MH-III/58 (70.48%)
  Node MSW/16/1/68 (70.48%)
  Node RD-9 (70.48%)
  Node MH1-54.2 (7.55%)
  
  
  *************************
  Routing Time Step Summary
  *************************
  Minimum Time Step           :     0.07 sec
  Average Time Step           :     2.22 sec
  Maximum Time Step           :    30.00 sec
  % of Time in Steady State   :     0.00
  Average Iterations per Step :     7.50
  % of Steps Not Converging   :    70.48
  Time Step Frequencies       :
     30.000 -  3.817 sec      :     0.56 %
      3.817 -  0.486 sec      :    96.67 %
      0.486 -  0.062 sec      :     2.77 %
      0.062 -  0.008 sec      :     0.00 %
      0.008 -  0.001 sec      :     0.00 %
  
  
  ***************************
  Subcatchment Runoff Summary
  ***************************
  
  ------------------------------------------------------------------------------------------------------------------------------
                            Total      Total      Total      Total     Imperv       Perv      Total       Total     Peak  Runoff
                           Precip      Runon       Evap      Infil     Runoff     Runoff     Runoff      Runoff   Runoff   Coeff
  Subcatchment                 in         in         in         in         in         in         in    10^6 gal      MGD
  ------------------------------------------------------------------------------------------------------------------------------
  CM-1                      36.50       0.00       0.00       0.00       0.00      36.27      36.27        1.03     2.05   0.994
  CM-10                     36.50       0.00       0.00       0.00       0.00      36.27      36.27        0.70     1.39   0.994
  CM-100                    36.50       0.00       0.00       0.00       0.00      36.27      36.27        0.74     1.47   0.994
  CM-1000                   36.50       0.00       0.00       0.00       0.00      36.27      36.27        2.21     4.39   0.994
  CM-1001                   36.50       0.00       0.00       0.00       0.00      36.27      36.27        0.37     0.73   0.994
  CM-1002                   36.50       0.00       0.00       0.00       0.00      36.27      36.27        3.53     7.01   0.994
  CM-1003                   36.50       0.00       0.00       0.00       0.00      36.27      36.27        0.96     1.90   0.994
  CM-1004                   36.50       0.00       0.00       0.00       0.00      36.27      36.27        0.50     1.00   0.994
  CM-1005                   36.50       0.00       0.00       0.00       0.00      36.27      36.27        2.90     5.77   0.994
  CM-1006                   36.50       0.00       0.00       0.00       0.00      36.27      36.27        1.68     3.34   0.994
  CM-1007                   36.50       0.00       0.00       0.00       0.00      36.27      36.27        0.10     0.20   0.994
  CM-1008                   36.50       0.00       0.00       0.00       0.00      36.27      36.27        0.47     0.93   0.994
  CM-1009                   36.50       0.00       0.00       0.00       0.00      36.27      36.27        0.95     1.88   0.994
  CM-101                    36.50       0.00       0.00       0.00       0.00      36.27      36.27        0.74     1.47   0.994
  CM-1010                   36.50       0.00       0.00       0.00       0.00      36.27      36.27        0.37     0.73   0.994
  CM-1011                   36.50       0.00       0.00       0.00       0.00      36.27      36.27        0.03     0.06   0.994
  CM-1012                   36.50       0.00       0.00       0.00       0.00      36.27      36.27        0.03     0.06   0.994
  CM-1013                   36.50       0.00       0.00       0.00       0.00      36.27      36.27        0.94     1.87   0.994
  CM-1014                   36.50       0.00       0.00       0.00       0.00      36.27      36.27        0.21     0.42   0.994
  CM-1015                   36.50       0.00       0.00       0.00       0.00      36.27      36.27        6.22    12.36   0.994
  CM-1016                   36.50       0.00       0.00       0.00       0.00      36.27      36.27        5.65    11.21   0.994
  CM-1017                   36.50       0.00       0.00       0.00       0.00      36.27      36.27        0.71     1.41   0.994
  CM-1018                   36.50       0.00       0.00       0.00       0.00      36.27      36.27        0.03     0.06   0.994
  CM-1019                   36.50       0.00       0.00       0.00       0.00      36.27      36.27       25.90    51.41   0.994
  CM-102                    36.50       0.00       0.00       0.00       0.00      36.27      36.27        0.74     1.47   0.994
  CM-1020                   36.50       0.00       0.00       0.00       0.00      36.27      36.27        0.71     1.40   0.994
  CM-1021                   36.50       0.00       0.00       0.00       0.00      36.27      36.27        0.48     0.96   0.994
  CM-1022                   36.50       0.00       0.00       0.00       0.00      36.27      36.27        1.22     2.43   0.994
  CM-1023                   36.50       0.00       0.00       0.00       0.00      36.27      36.27        0.99     1.98   0.994
  CM-1024                   36.50       0.00       0.00       0.00       0.00      36.27      36.27        0.26     0.52   0.994
  CM-1025                   36.50       0.00       0.00       0.00       0.00      36.27      36.27        0.21     0.42   0.994
  CM-1026                   36.50       0.00       0.00       0.00       0.00      36.27      36.27        1.78     3.54   0.994
  CM-1027                   36.50       0.00       0.00       0.00       0.00      36.27      36.27        0.02     0.05   0.994
  CM-1028                   36.50       0.00       0.00       0.00       0.00      36.27      36.27        1.52     3.01   0.994
  CM-1029                   36.50       0.00       0.00       0.00       0.00      36.27      36.27        4.23     8.40   0.994
  CM-103                    36.50       0.00       0.00       0.00       0.00      36.27      36.27        0.73     1.46   0.994
  CM-1030                   36.50       0.00       0.00       0.00       0.00      36.27      36.27        1.57     3.12   0.994
  CM-1031                   36.50       0.00       0.00       0.00       0.00      36.27      36.27        3.65     7.24   0.994
  CM-1032                   36.50       0.00       0.00       0.00       0.00      36.27      36.27        0.98     1.94   0.994
  CM-1033                   36.50       0.00       0.00       0.00       0.00      36.27      36.27        0.16     0.32   0.994
  CM-1034                   36.50       0.00       0.00       0.00       0.00      36.27      36.27        0.45     0.89   0.994
  CM-1035                   36.50       0.00       0.00       0.00       0.00      36.27      36.27        0.18     0.36   0.994
  CM-1036                   36.50       0.00       0.00       0.00       0.00      36.27      36.27        0.18     0.36   0.994
  CM-1037                   36.50       0.00       0.00       0.00       0.00      36.27      36.27        0.22     0.43   0.994
  CM-1038                   36.50       0.00       0.00       0.00       0.00      36.27      36.27        0.22     0.43   0.994
  CM-1039                   36.50       0.00       0.00       0.00       0.00      36.27      36.27        3.02     6.00   0.994
  CM-104                    36.50       0.00       0.00       0.00       0.00      36.27      36.27        0.62     1.23   0.994
  CM-1040                   36.50       0.00       0.00       0.00       0.00      36.27      36.27        2.00     3.96   0.994
  CM-1041                   36.50       0.00       0.00       0.00       0.00      36.27      36.27        1.12     2.23   0.994
  CM-1042                   36.50       0.00       0.00       0.00       0.00      36.27      36.27        3.32     6.59   0.994
  CM-1043                   36.50       0.00       0.00       0.00       0.00      36.27      36.27        1.07     2.13   0.994
  CM-1044                   36.50       0.00       0.00       0.00       0.00      36.27      36.27        3.34     6.62   0.994
  CM-1045                   36.50       0.00       0.00       0.00       0.00      36.27      36.27        1.58     3.13   0.994
  CM-1046                   36.50       0.00       0.00       0.00       0.00      36.27      36.27        1.42     2.83   0.994
  CM-1047                   36.50       0.00       0.00       0.00       0.00      36.27      36.27        3.00     5.96   0.994
  CM-1048                   36.50       0.00       0.00       0.00       0.00      36.27      36.27        3.37     6.69   0.994
  CM-1049                   36.50       0.00       0.00       0.00       0.00      36.27      36.27        0.34     0.68   0.994
  CM-105                    36.50       0.00       0.00       0.00       0.00      36.27      36.27        0.67     1.32   0.994
  CM-1050                   36.50       0.00       0.00       0.00       0.00      36.27      36.27        2.44     4.84   0.994
  CM-1051                   36.50       0.00       0.00       0.00       0.00      36.27      36.27        1.81     3.58   0.994
  CM-1052                   36.50       0.00       0.00       0.00       0.00      36.27      36.27        3.05     6.06   0.994
  CM-1053                   36.50       0.00       0.00       0.00       0.00      36.27      36.27        0.78     1.55   0.994
  CM-1054                   36.50       0.00       0.00       0.00       0.00      36.27      36.27        1.34     2.66   0.994
  CM-1055                   36.50       0.00       0.00       0.00       0.00      36.27      36.27        1.42     2.83   0.994
  CM-1056                   36.50       0.00       0.00       0.00       0.00      36.27      36.27        1.65     3.28   0.994
  CM-1057                   36.50       0.00       0.00       0.00       0.00      36.27      36.27        7.00    13.90   0.994
  CM-1058                   36.50       0.00       0.00       0.00       0.00      36.27      36.27        1.35     2.68   0.994
  CM-1059                   36.50       0.00       0.00       0.00       0.00      36.27      36.27        3.02     6.00   0.994
  CM-106                    36.50       0.00       0.00       0.00       0.00      36.27      36.27        0.73     1.44   0.994
  CM-1060                   36.50       0.00       0.00       0.00       0.00      36.27      36.27        0.45     0.89   0.994
  CM-1061                   36.50       0.00       0.00       0.00       0.00      36.27      36.27        1.82     3.61   0.994
  CM-1062                   36.50       0.00       0.00       0.00       0.00      36.27      36.27        3.00     5.96   0.994
  CM-1063                   36.50       0.00       0.00       0.00       0.00      36.27      36.27        1.55     3.09   0.994
  CM-1064                   36.50       0.00       0.00       0.00       0.00      36.27      36.27        3.05     6.06   0.994
  CM-1065                   36.50       0.00       0.00       0.00       0.00      36.27      36.27        0.79     1.57   0.994
  CM-1066                   36.50       0.00       0.00       0.00       0.00      36.27      36.27        0.79     1.57   0.994
  CM-1067                   36.50       0.00       0.00       0.00       0.00      36.27      36.27        0.88     1.75   0.994
  CM-1068                   36.50       0.00       0.00       0.00       0.00      36.27      36.27        2.50     4.96   0.994
  CM-1069                   36.50       0.00       0.00       0.00       0.00      36.27      36.27        5.23    10.38   0.994
  CM-107                    36.50       0.00       0.00       0.00       0.00      36.27      36.27        0.85     1.68   0.994
  CM-1070                   36.50       0.00       0.00       0.00       0.00      36.27      36.27        0.94     1.87   0.994
  CM-1071                   36.50       0.00       0.00       0.00       0.00      36.27      36.27        0.69     1.38   0.994
  CM-1072                   36.50       0.00       0.00       0.00       0.00      36.27      36.27        0.90     1.79   0.994
  CM-1073                   36.50       0.00       0.00       0.00       0.00      36.27      36.27        0.86     1.70   0.994
  CM-1074                   36.50       0.00       0.00       0.00       0.00      36.27      36.27        3.01     5.98   0.994
  CM-1075                   36.50       0.00       0.00       0.00       0.00      36.27      36.27       18.43    36.58   0.994
  CM-1076                   36.50       0.00       0.00       0.00       0.00      36.27      36.27        1.02     2.03   0.994
  CM-1077                   36.50       0.00       0.00       0.00       0.00      36.27      36.27        1.55     3.07   0.994
  CM-1078                   36.50       0.00       0.00       0.00       0.00      36.27      36.27        3.50     6.94   0.994
  CM-1079                   36.50       0.00       0.00       0.00       0.00      36.27      36.27        1.64     3.25   0.994
  CM-108                    36.50       0.00       0.00       0.00       0.00      36.27      36.27        1.09     2.16   0.994
  CM-1080                   36.50       0.00       0.00       0.00       0.00      36.27      36.27        0.83     1.65   0.994
  CM-1081                   36.50       0.00       0.00       0.00       0.00      36.27      36.27        3.07     6.09   0.994
  CM-1082                   36.50       0.00       0.00       0.00       0.00      36.27      36.27        0.69     1.37   0.994
  CM-1083                   36.50       0.00       0.00       0.00       0.00      36.27      36.27        0.79     1.56   0.994
  CM-1084                   36.50       0.00       0.00       0.00       0.00      36.27      36.27        1.81     3.59   0.994
  CM-1085                   36.50       0.00       0.00       0.00       0.00      36.27      36.27        3.90     7.74   0.994
  CM-1086                   36.50       0.00       0.00       0.00       0.00      36.27      36.27        0.90     1.79   0.994
  CM-1087                   36.50       0.00       0.00       0.00       0.00      36.27      36.27        1.52     3.01   0.994
  CM-1088                   36.50       0.00       0.00       0.00       0.00      36.27      36.27        2.78     5.52   0.994
  CM-1089                   36.50       0.00       0.00       0.00       0.00      36.27      36.27        1.74     3.46   0.994
  CM-109                    36.50       0.00       0.00       0.00       0.00      36.27      36.27        1.06     2.10   0.994
  CM-1090                   36.50       0.00       0.00       0.00       0.00      36.27      36.27        3.37     6.69   0.994
  CM-1091                   36.50       0.00       0.00       0.00       0.00      36.27      36.27        2.36     4.69   0.994
  CM-1092                   36.50       0.00       0.00       0.00       0.00      36.27      36.27        1.65     3.28   0.994
  CM-1093                   36.50       0.00       0.00       0.00       0.00      36.27      36.27        3.34     6.63   0.994
  CM-1094                   36.50       0.00       0.00       0.00       0.00      36.27      36.27        3.37     6.69   0.994
  CM-1095                   36.50       0.00       0.00       0.00       0.00      36.27      36.27       15.04    29.86   0.994
  CM-1096                   36.50       0.00       0.00       0.00       0.00      36.27      36.27        3.86     7.66   0.994
  CM-1097                   36.50       0.00       0.00       0.00       0.00      36.27      36.27        3.20     6.35   0.994
  CM-1098                   36.50       0.00       0.00       0.00       0.00      36.27      36.27        0.80     1.58   0.994
  CM-1099                   36.50       0.00       0.00       0.00       0.00      36.27      36.27        1.57     3.11   0.994
  CM-11                     36.50       0.00       0.00       0.00       0.00      36.27      36.27        0.69     1.37   0.994
  CM-110                    36.50       0.00       0.00       0.00       0.00      36.27      36.27        0.81     1.62   0.994
  CM-1100                   36.50       0.00       0.00       0.00       0.00      36.27      36.27        2.45     4.87   0.994
  CM-1101                   36.50       0.00       0.00       0.00       0.00      36.27      36.27        0.93     1.85   0.994
  CM-1102                   36.50       0.00       0.00       0.00       0.00      36.27      36.27        0.95     1.89   0.994
  CM-1103                   36.50       0.00       0.00       0.00       0.00      36.27      36.27        3.64     7.23   0.994
  CM-1104                   36.50       0.00       0.00       0.00       0.00      36.27      36.27        1.73     3.43   0.994
  CM-1105                   36.50       0.00       0.00       0.00       0.00      36.27      36.27        0.86     1.72   0.994
  CM-1106                   36.50       0.00       0.00       0.00       0.00      36.27      36.27        0.86     1.72   0.994
  CM-1107                   36.50       0.00       0.00       0.00       0.00      36.27      36.27        1.71     3.40   0.994
  CM-1108                   36.50       0.00       0.00       0.00       0.00      36.27      36.27        1.57     3.11   0.994
  CM-1109                   36.50       0.00       0.00       0.00       0.00      36.27      36.27        1.81     3.58   0.994
  CM-111                    36.50       0.00       0.00       0.00       0.00      36.27      36.27        0.84     1.66   0.994
  CM-1110                   36.50       0.00       0.00       0.00       0.00      36.27      36.27        3.53     7.01   0.994
  CM-1111                   36.50       0.00       0.00       0.00       0.00      36.27      36.27        0.47     0.94   0.994
  CM-1112                   36.50       0.00       0.00       0.00       0.00      36.27      36.27        0.47     0.94   0.994
  CM-1113                   36.50       0.00       0.00       0.00       0.00      36.27      36.27        0.47     0.94   0.994
  CM-1114                   36.50       0.00       0.00       0.00       0.00      36.27      36.27        0.47     0.94   0.994
  CM-1115                   36.50       0.00       0.00       0.00       0.00      36.27      36.27        0.64     1.27   0.994
  CM-1116                   36.50       0.00       0.00       0.00       0.00      36.27      36.27        0.64     1.27   0.994
  CM-1117                   36.50       0.00       0.00       0.00       0.00      36.27      36.27        0.64     1.27   0.994
  CM-1118                   36.50       0.00       0.00       0.00       0.00      36.27      36.27        0.71     1.40   0.994
  CM-1119                   36.50       0.00       0.00       0.00       0.00      36.27      36.27        0.71     1.40   0.994
  CM-112                    36.50       0.00       0.00       0.00       0.00      36.27      36.27        0.86     1.71   0.994
  CM-1120                   36.50       0.00       0.00       0.00       0.00      36.27      36.27        3.00     5.96   0.994
  CM-1121                   36.50       0.00       0.00       0.00       0.00      36.27      36.27        3.03     6.01   0.994
  CM-1122                   36.50       0.00       0.00       0.00       0.00      36.27      36.27        0.67     1.33   0.994
  CM-1123                   36.50       0.00       0.00       0.00       0.00      36.27      36.27        2.18     4.33   0.994
  CM-1124                   36.50       0.00       0.00       0.00       0.00      36.27      36.27        3.00     5.96   0.994
  CM-1125                   36.50       0.00       0.00       0.00       0.00      36.27      36.27        4.97     9.87   0.994
  CM-1126                   36.50       0.00       0.00       0.00       0.00      36.27      36.27        3.32     6.59   0.994
  CM-1127                   36.50       0.00       0.00       0.00       0.00      36.27      36.27        0.71     1.40   0.994
  CM-1128                   36.50       0.00       0.00       0.00       0.00      36.27      36.27        2.93     5.81   0.994
  CM-1129                   36.50       0.00       0.00       0.00       0.00      36.27      36.27        3.50     6.94   0.994
  CM-113                    36.50       0.00       0.00       0.00       0.00      36.27      36.27        0.70     1.39   0.994
  CM-1130                   36.50       0.00       0.00       0.00       0.00      36.27      36.27        3.68     7.32   0.994
  CM-1131                   36.50       0.00       0.00       0.00       0.00      36.27      36.27        4.20     8.34   0.994
  CM-1132                   36.50       0.00       0.00       0.00       0.00      36.27      36.27        3.03     6.02   0.994
  CM-1133                   36.50       0.00       0.00       0.00       0.00      36.27      36.27        9.30    18.46   0.994
  CM-1134                   36.50       0.00       0.00       0.00       0.00      36.27      36.27        2.31     4.59   0.994
  CM-1135                   36.50       0.00       0.00       0.00       0.00      36.27      36.27        7.30    14.48   0.994
  CM-1136                   36.50       0.00       0.00       0.00       0.00      36.27      36.27        0.64     1.27   0.994
  CM-1137                   36.50       0.00       0.00       0.00       0.00      36.27      36.27        5.54    11.00   0.994
  CM-1138                   36.50       0.00       0.00       0.00       0.00      36.27      36.27        1.58     3.13   0.994
  CM-1139                   36.50       0.00       0.00       0.00       0.00      36.27      36.27        2.05     4.06   0.994
  CM-114                    36.50       0.00       0.00       0.00       0.00      36.27      36.27        0.79     1.57   0.994
  CM-1140                   36.50       0.00       0.00       0.00       0.00      36.27      36.27        0.72     1.43   0.994
  CM-1141                   36.50       0.00       0.00       0.00       0.00      36.27      36.27        2.97     5.89   0.994
  CM-1142                   36.50       0.00       0.00       0.00       0.00      36.27      36.27        3.34     6.63   0.994
  CM-1143                   36.50       0.00       0.00       0.00       0.00      36.27      36.27        3.34     6.63   0.994
  CM-1144                   36.50       0.00       0.00       0.00       0.00      36.27      36.27        7.35    14.60   0.994
  CM-1145                   36.50       0.00       0.00       0.00       0.00      36.27      36.27        0.71     1.40   0.994
  CM-1146                   36.50       0.00       0.00       0.00       0.00      36.27      36.27        7.38    14.65   0.994
  CM-1147                   36.50       0.00       0.00       0.00       0.00      36.27      36.27        0.83     1.65   0.994
  CM-1148                   36.50       0.00       0.00       0.00       0.00      36.27      36.27        1.05     2.08   0.994
  CM-1149                   36.50       0.00       0.00       0.00       0.00      36.27      36.27        0.66     1.32   0.994
  CM-115                    36.50       0.00       0.00       0.00       0.00      36.27      36.27        1.90     3.77   0.994
  CM-1150                   36.50       0.00       0.00       0.00       0.00      36.27      36.27        0.75     1.49   0.994
  CM-1151                   36.50       0.00       0.00       0.00       0.00      36.27      36.27        0.69     1.37   0.994
  CM-1152                   36.50       0.00       0.00       0.00       0.00      36.27      36.27        0.75     1.49   0.994
  CM-1153                   36.50       0.00       0.00       0.00       0.00      36.27      36.27        1.27     2.52   0.994
  CM-1154                   36.50       0.00       0.00       0.00       0.00      36.27      36.27        1.11     2.20   0.994
  CM-1155                   36.50       0.00       0.00       0.00       0.00      36.27      36.27        0.84     1.68   0.994
  CM-1156                   36.50       0.00       0.00       0.00       0.00      36.27      36.27        1.12     2.23   0.994
  CM-1157                   36.50       0.00       0.00       0.00       0.00      36.27      36.27        1.16     2.30   0.994
  CM-1158                   36.50       0.00       0.00       0.00       0.00      36.27      36.27        1.05     2.09   0.994
  CM-1159                   36.50       0.00       0.00       0.00       0.00      36.27      36.27        1.44     2.85   0.994
  CM-116                    36.50       0.00       0.00       0.00       0.00      36.27      36.27        0.90     1.79   0.994
  CM-1160                   36.50       0.00       0.00       0.00       0.00      36.27      36.27        5.93    11.77   0.994
  CM-1161                   36.50       0.00       0.00       0.00       0.00      36.27      36.27        0.46     0.92   0.994
  CM-1162                   36.50       0.00       0.00       0.00       0.00      36.27      36.27        0.53     1.04   0.994
  CM-1163                   36.50       0.00       0.00       0.00       0.00      36.27      36.27        0.54     1.08   0.994
  CM-1164                   36.50       0.00       0.00       0.00       0.00      36.27      36.27        0.61     1.21   0.994
  CM-1165                   36.50       0.00       0.00       0.00       0.00      36.27      36.27        1.81     3.60   0.994
  CM-1166                   36.50       0.00       0.00       0.00       0.00      36.27      36.27        0.47     0.93   0.994
  CM-1167                   36.50       0.00       0.00       0.00       0.00      36.27      36.27        0.94     1.87   0.994
  CM-1168                   36.50       0.00       0.00       0.00       0.00      36.27      36.27        1.54     3.06   0.994
  CM-1169                   36.50       0.00       0.00       0.00       0.00      36.27      36.27        0.97     1.92   0.994
  CM-117                    36.50       0.00       0.00       0.00       0.00      36.27      36.27        0.86     1.71   0.994
  CM-1170                   36.50       0.00       0.00       0.00       0.00      36.27      36.27        1.02     2.03   0.994
  CM-1171                   36.50       0.00       0.00       0.00       0.00      36.27      36.27        6.51    12.93   0.994
  CM-1172                   36.50       0.00       0.00       0.00       0.00      36.27      36.27        1.12     2.22   0.994
  CM-1173                   36.50       0.00       0.00       0.00       0.00      36.27      36.27        0.93     1.85   0.994
  CM-1174                   36.50       0.00       0.00       0.00       0.00      36.27      36.27        1.34     2.67   0.994
  CM-1175                   36.50       0.00       0.00       0.00       0.00      36.27      36.27        1.78     3.53   0.994
  CM-1176                   36.50       0.00       0.00       0.00       0.00      36.27      36.27        0.66     1.32   0.994
  CM-1177                   36.50       0.00       0.00       0.00       0.00      36.27      36.27        0.91     1.80   0.994
  CM-1178                   36.50       0.00       0.00       0.00       0.00      36.27      36.27        1.23     2.44   0.994
  CM-1179                   36.50       0.00       0.00       0.00       0.00      36.27      36.27        0.54     1.08   0.994
  CM-118                    36.50       0.00       0.00       0.00       0.00      36.27      36.27        0.57     1.13   0.994
  CM-1180                   36.50       0.00       0.00       0.00       0.00      36.27      36.27        0.83     1.66   0.994
  CM-1181                   36.50       0.00       0.00       0.00       0.00      36.27      36.27        2.10     4.18   0.994
  CM-1182                   36.50       0.00       0.00       0.00       0.00      36.27      36.27       10.46    20.77   0.994
  CM-1183                   36.50       0.00       0.00       0.00       0.00      36.27      36.27        1.62     3.22   0.994
  CM-1184                   36.50       0.00       0.00       0.00       0.00      36.27      36.27        1.12     2.23   0.994
  CM-1185                   36.50       0.00       0.00       0.00       0.00      36.27      36.27        1.06     2.11   0.994
  CM-1186                   36.50       0.00       0.00       0.00       0.00      36.27      36.27        0.98     1.95   0.994
  CM-1187                   36.50       0.00       0.00       0.00       0.00      36.27      36.27        1.01     2.01   0.994
  CM-1188                   36.50       0.00       0.00       0.00       0.00      36.27      36.27        0.69     1.37   0.994
  CM-1189                   36.50       0.00       0.00       0.00       0.00      36.27      36.27        1.34     2.66   0.994
  CM-119                    36.50       0.00       0.00       0.00       0.00      36.27      36.27        0.58     1.16   0.994
  CM-1190                   36.50       0.00       0.00       0.00       0.00      36.27      36.27        1.03     2.05   0.994
  CM-1191                   36.50       0.00       0.00       0.00       0.00      36.27      36.27        1.14     2.27   0.994
  CM-1192                   36.50       0.00       0.00       0.00       0.00      36.27      36.27        0.86     1.71   0.994
  CM-1193                   36.50       0.00       0.00       0.00       0.00      36.27      36.27        0.99     1.97   0.994
  CM-1194                   36.50       0.00       0.00       0.00       0.00      36.27      36.27        0.58     1.14   0.994
  CM-1195                   36.50       0.00       0.00       0.00       0.00      36.27      36.27        1.38     2.73   0.994
  CM-1196                   36.50       0.00       0.00       0.00       0.00      36.27      36.27        1.75     3.47   0.994
  CM-1197                   36.50       0.00       0.00       0.00       0.00      36.27      36.27        0.48     0.96   0.994
  CM-1198                   36.50       0.00       0.00       0.00       0.00      36.27      36.27        1.59     3.16   0.994
  CM-1199                   36.50       0.00       0.00       0.00       0.00      36.27      36.27        0.96     1.90   0.994
  CM-12                     36.50       0.00       0.00       0.00       0.00      36.27      36.27        4.42     8.78   0.994
  CM-120                    36.50       0.00       0.00       0.00       0.00      36.27      36.27        1.18     2.34   0.994
  CM-1200                   36.50       0.00       0.00       0.00       0.00      36.27      36.27        1.14     2.26   0.994
  CM-1201                   36.50       0.00       0.00       0.00       0.00      36.27      36.27        1.51     2.99   0.994
  CM-1202                   36.50       0.00       0.00       0.00       0.00      36.27      36.27        0.75     1.49   0.994
  CM-1203                   36.50       0.00       0.00       0.00       0.00      36.27      36.27        0.91     1.81   0.994
  CM-1204                   36.50       0.00       0.00       0.00       0.00      36.27      36.27        1.05     2.08   0.994
  CM-1205                   36.50       0.00       0.00       0.00       0.00      36.27      36.27        1.30     2.58   0.994
  CM-1206                   36.50       0.00       0.00       0.00       0.00      36.27      36.27        1.91     3.79   0.994
  CM-1207                   36.50       0.00       0.00       0.00       0.00      36.27      36.27        0.79     1.57   0.994
  CM-1208                   36.50       0.00       0.00       0.00       0.00      36.27      36.27        2.71     5.38   0.994
  CM-1209                   36.50       0.00       0.00       0.00       0.00      36.27      36.27        0.78     1.55   0.994
  CM-121                    36.50       0.00       0.00       0.00       0.00      36.27      36.27        0.66     1.31   0.994
  CM-1210                   36.50       0.00       0.00       0.00       0.00      36.27      36.27        2.47     4.91   0.994
  CM-1211                   36.50       0.00       0.00       0.00       0.00      36.27      36.27        5.47    10.85   0.994
  CM-1212                   36.50       0.00       0.00       0.00       0.00      36.27      36.27        0.49     0.97   0.994
  CM-1213                   36.50       0.00       0.00       0.00       0.00      36.27      36.27        1.01     2.00   0.994
  CM-1214                   36.50       0.00       0.00       0.00       0.00      36.27      36.27        1.05     2.09   0.994
  CM-1215                   36.50       0.00       0.00       0.00       0.00      36.27      36.27        1.17     2.32   0.994
  CM-1216                   36.50       0.00       0.00       0.00       0.00      36.27      36.27        1.08     2.14   0.994
  CM-1217                   36.50       0.00       0.00       0.00       0.00      36.27      36.27        3.50     6.95   0.994
  CM-1218                   36.50       0.00       0.00       0.00       0.00      36.27      36.27        3.29     6.53   0.994
  CM-1219                   36.50       0.00       0.00       0.00       0.00      36.27      36.27        1.94     3.86   0.994
  CM-122                    36.50       0.00       0.00       0.00       0.00      36.27      36.27        0.55     1.09   0.994
  CM-1220                   36.50       0.00       0.00       0.00       0.00      36.27      36.27        2.35     4.66   0.994
  CM-1221                   36.50       0.00       0.00       0.00       0.00      36.27      36.27        1.25     2.48   0.994
  CM-1222                   36.50       0.00       0.00       0.00       0.00      36.27      36.27        3.92     7.79   0.994
  CM-1223                   36.50       0.00       0.00       0.00       0.00      36.27      36.27        0.49     0.97   0.994
  CM-1224                   36.50       0.00       0.00       0.00       0.00      36.27      36.27        0.50     1.00   0.994
  CM-1225                   36.50       0.00       0.00       0.00       0.00      36.27      36.27        0.90     1.78   0.994
  CM-1226                   36.50       0.00       0.00       0.00       0.00      36.27      36.27        1.12     2.22   0.994
  CM-1227                   36.50       0.00       0.00       0.00       0.00      36.27      36.27        0.87     1.73   0.994
  CM-1228                   36.50       0.00       0.00       0.00       0.00      36.27      36.27        1.14     2.25   0.994
  CM-1229                   36.50       0.00       0.00       0.00       0.00      36.27      36.27        0.04     0.07   0.994
  CM-123                    36.50       0.00       0.00       0.00       0.00      36.27      36.27        0.55     1.08   0.994
  CM-1230                   36.50       0.00       0.00       0.00       0.00      36.27      36.27        3.85     7.64   0.994
  CM-1231                   36.50       0.00       0.00       0.00       0.00      36.27      36.27        2.18     4.34   0.994
  CM-1232                   36.50       0.00       0.00       0.00       0.00      36.27      36.27        0.92     1.82   0.994
  CM-1233                   36.50       0.00       0.00       0.00       0.00      36.27      36.27        1.62     3.21   0.994
  CM-1234                   36.50       0.00       0.00       0.00       0.00      36.27      36.27        1.94     3.85   0.994
  CM-1235                   36.50       0.00       0.00       0.00       0.00      36.27      36.27        0.70     1.38   0.994
  CM-1236                   36.50       0.00       0.00       0.00       0.00      36.27      36.27        0.53     1.05   0.994
  CM-1237                   36.50       0.00       0.00       0.00       0.00      36.27      36.27        0.32     0.64   0.994
  CM-1238                   36.50       0.00       0.00       0.00       0.00      36.27      36.27        0.39     0.78   0.994
  CM-1239                   36.50       0.00       0.00       0.00       0.00      36.27      36.27        0.88     1.74   0.994
  CM-124                    36.50       0.00       0.00       0.00       0.00      36.27      36.27        0.57     1.13   0.994
  CM-1240                   36.50       0.00       0.00       0.00       0.00      36.27      36.27        0.64     1.27   0.994
  CM-1241                   36.50       0.00       0.00       0.00       0.00      36.27      36.27        2.92     5.81   0.994
  CM-1242                   36.50       0.00       0.00       0.00       0.00      36.27      36.27        0.59     1.17   0.994
  CM-1243                   36.50       0.00       0.00       0.00       0.00      36.27      36.27        0.35     0.70   0.994
  CM-1244                   36.50       0.00       0.00       0.00       0.00      36.27      36.27        0.94     1.87   0.994
  CM-1245                   36.50       0.00       0.00       0.00       0.00      36.27      36.27        1.16     2.29   0.994
  CM-1246                   36.50       0.00       0.00       0.00       0.00      36.27      36.27        0.04     0.07   0.994
  CM-1247                   36.50       0.00       0.00       0.00       0.00      36.27      36.27        0.56     1.12   0.994
  CM-1248                   36.50       0.00       0.00       0.00       0.00      36.27      36.27        1.90     3.78   0.994
  CM-1249                   36.50       0.00       0.00       0.00       0.00      36.27      36.27        0.04     0.08   0.994
  CM-125                    36.50       0.00       0.00       0.00       0.00      36.27      36.27        0.57     1.13   0.994
  CM-1250                   36.50       0.00       0.00       0.00       0.00      36.27      36.27        0.95     1.88   0.994
  CM-1251                   36.50       0.00       0.00       0.00       0.00      36.27      36.27        0.99     1.96   0.994
  CM-1252                   36.50       0.00       0.00       0.00       0.00      36.27      36.27        0.59     1.18   0.994
  CM-1253                   36.50       0.00       0.00       0.00       0.00      36.27      36.27        0.71     1.41   0.994
  CM-1254                   36.50       0.00       0.00       0.00       0.00      36.27      36.27        1.44     2.85   0.994
  CM-1255                   36.50       0.00       0.00       0.00       0.00      36.27      36.27        2.14     4.26   0.994
  CM-1256                   36.50       0.00       0.00       0.00       0.00      36.27      36.27        2.30     4.56   0.994
  CM-1257                   36.50       0.00       0.00       0.00       0.00      36.27      36.27        0.80     1.60   0.994
  CM-1258                   36.50       0.00       0.00       0.00       0.00      36.27      36.27        0.78     1.56   0.994
  CM-1259                   36.50       0.00       0.00       0.00       0.00      36.27      36.27        0.80     1.60   0.994
  CM-126                    36.50       0.00       0.00       0.00       0.00      36.27      36.27        0.61     1.22   0.994
  CM-1260                   36.50       0.00       0.00       0.00       0.00      36.27      36.27        6.32    12.54   0.994
  CM-1261                   36.50       0.00       0.00       0.00       0.00      36.27      36.27        2.94     5.85   0.994
  CM-1262                   36.50       0.00       0.00       0.00       0.00      36.27      36.27        0.46     0.91   0.994
  CM-1263                   36.50       0.00       0.00       0.00       0.00      36.27      36.27        3.30     6.55   0.994
  CM-1264                   36.50       0.00       0.00       0.00       0.00      36.27      36.27        0.99     1.96   0.994
  CM-1265                   36.50       0.00       0.00       0.00       0.00      36.27      36.27        0.71     1.41   0.994
  CM-1266                   36.50       0.00       0.00       0.00       0.00      36.27      36.27        1.53     3.04   0.994
  CM-1267                   36.50       0.00       0.00       0.00       0.00      36.27      36.27        1.55     3.08   0.994
  CM-1268                   36.50       0.00       0.00       0.00       0.00      36.27      36.27        0.04     0.07   0.994
  CM-1269                   36.50       0.00       0.00       0.00       0.00      36.27      36.27        0.73     1.45   0.994
  CM-127                    36.50       0.00       0.00       0.00       0.00      36.27      36.27        0.60     1.19   0.994
  CM-1270                   36.50       0.00       0.00       0.00       0.00      36.27      36.27        0.74     1.46   0.994
  CM-1271                   36.50       0.00       0.00       0.00       0.00      36.27      36.27        1.80     3.58   0.994
  CM-1272                   36.50       0.00       0.00       0.00       0.00      36.27      36.27        1.16     2.31   0.994
  CM-1273                   36.50       0.00       0.00       0.00       0.00      36.27      36.27        3.48     6.90   0.994
  CM-1274                   36.50       0.00       0.00       0.00       0.00      36.27      36.27        2.85     5.66   0.994
  CM-1275                   36.50       0.00       0.00       0.00       0.00      36.27      36.27        0.64     1.26   0.994
  CM-1276                   36.50       0.00       0.00       0.00       0.00      36.27      36.27        0.57     1.13   0.994
  CM-1277                   36.50       0.00       0.00       0.00       0.00      36.27      36.27        0.61     1.21   0.994
  CM-1278                   36.50       0.00       0.00       0.00       0.00      36.27      36.27        0.27     0.54   0.994
  CM-1279                   36.50       0.00       0.00       0.00       0.00      36.27      36.27        0.26     0.52   0.994
  CM-128                    36.50       0.00       0.00       0.00       0.00      36.27      36.27        0.79     1.56   0.994
  CM-1280                   36.50       0.00       0.00       0.00       0.00      36.27      36.27        0.36     0.72   0.994
  CM-1281                   36.50       0.00       0.00       0.00       0.00      36.27      36.27       10.66    21.16   0.994
  CM-1282                   36.50       0.00       0.00       0.00       0.00      36.27      36.27        2.32     4.62   0.994
  CM-1283                   36.50       0.00       0.00       0.00       0.00      36.27      36.27        2.10     4.17   0.994
  CM-1284                   36.50       0.00       0.00       0.00       0.00      36.27      36.27        1.04     2.07   0.994
  CM-1285                   36.50       0.00       0.00       0.00       0.00      36.27      36.27        0.74     1.47   0.994
  CM-1286                   36.50       0.00       0.00       0.00       0.00      36.27      36.27        0.83     1.64   0.994
  CM-1287                   36.50       0.00       0.00       0.00       0.00      36.27      36.27        2.11     4.19   0.994
  CM-1288                   36.50       0.00       0.00       0.00       0.00      36.27      36.27        0.99     1.97   0.994
  CM-1289                   36.50       0.00       0.00       0.00       0.00      36.27      36.27        1.05     2.08   0.994
  CM-129                    36.50       0.00       0.00       0.00       0.00      36.27      36.27        0.66     1.31   0.994
  CM-1290                   36.50       0.00       0.00       0.00       0.00      36.27      36.27        3.71     7.37   0.994
  CM-1291                   36.50       0.00       0.00       0.00       0.00      36.27      36.27        4.12     8.18   0.994
  CM-1292                   36.50       0.00       0.00       0.00       0.00      36.27      36.27        2.10     4.17   0.994
  CM-1293                   36.50       0.00       0.00       0.00       0.00      36.27      36.27        2.37     4.71   0.994
  CM-1294                   36.50       0.00       0.00       0.00       0.00      36.27      36.27        0.80     1.58   0.994
  CM-1295                   36.50       0.00       0.00       0.00       0.00      36.27      36.27        0.73     1.45   0.994
  CM-1296                   36.50       0.00       0.00       0.00       0.00      36.27      36.27        0.45     0.89   0.994
  CM-1297                   36.50       0.00       0.00       0.00       0.00      36.27      36.27        1.04     2.07   0.994
  CM-1298                   36.50       0.00       0.00       0.00       0.00      36.27      36.27        0.59     1.17   0.994
  CM-1299                   36.50       0.00       0.00       0.00       0.00      36.27      36.27        0.95     1.88   0.994
  CM-13                     36.50       0.00       0.00       0.00       0.00      36.27      36.27        1.08     2.14   0.994
  CM-130                    36.50       0.00       0.00       0.00       0.00      36.27      36.27        0.70     1.39   0.994
  CM-1300                   36.50       0.00       0.00       0.00       0.00      36.27      36.27        0.90     1.79   0.994
  CM-1301                   36.50       0.00       0.00       0.00       0.00      36.27      36.27        2.54     5.05   0.994
  CM-1302                   36.50       0.00       0.00       0.00       0.00      36.27      36.27        0.89     1.78   0.994
  CM-1303                   36.50       0.00       0.00       0.00       0.00      36.27      36.27        1.56     3.10   0.994
  CM-1304                   36.50       0.00       0.00       0.00       0.00      36.27      36.27        1.52     3.01   0.994
  CM-1305                   36.50       0.00       0.00       0.00       0.00      36.27      36.27        0.55     1.10   0.994
  CM-1306                   36.50       0.00       0.00       0.00       0.00      36.27      36.27        4.18     8.31   0.994
  CM-1307                   36.50       0.00       0.00       0.00       0.00      36.27      36.27        0.66     1.32   0.994
  CM-1308                   36.50       0.00       0.00       0.00       0.00      36.27      36.27        0.59     1.17   0.994
  CM-1309                   36.50       0.00       0.00       0.00       0.00      36.27      36.27        0.29     0.58   0.994
  CM-131                    36.50       0.00       0.00       0.00       0.00      36.27      36.27        0.89     1.76   0.994
  CM-1310                   36.50       0.00       0.00       0.00       0.00      36.27      36.27        0.78     1.55   0.994
  CM-1311                   36.50       0.00       0.00       0.00       0.00      36.27      36.27        0.64     1.27   0.994
  CM-1312                   36.50       0.00       0.00       0.00       0.00      36.27      36.27        0.56     1.10   0.994
  CM-1313                   36.50       0.00       0.00       0.00       0.00      36.27      36.27        0.55     1.10   0.994
  CM-1314                   36.50       0.00       0.00       0.00       0.00      36.27      36.27        0.71     1.41   0.994
  CM-1315                   36.50       0.00       0.00       0.00       0.00      36.27      36.27        0.94     1.86   0.994
  CM-1316                   36.50       0.00       0.00       0.00       0.00      36.27      36.27        1.09     2.17   0.994
  CM-1317                   36.50       0.00       0.00       0.00       0.00      36.27      36.27        3.68     7.31   0.994
  CM-1318                   36.50       0.00       0.00       0.00       0.00      36.27      36.27        1.47     2.92   0.994
  CM-1319                   36.50       0.00       0.00       0.00       0.00      36.27      36.27        2.34     4.65   0.994
  CM-132                    36.50       0.00       0.00       0.00       0.00      36.27      36.27        0.85     1.69   0.994
  CM-1320                   36.50       0.00       0.00       0.00       0.00      36.27      36.27        2.83     5.61   0.994
  CM-1321                   36.50       0.00       0.00       0.00       0.00      36.27      36.27        1.57     3.11   0.994
  CM-1322                   36.50       0.00       0.00       0.00       0.00      36.27      36.27        2.76     5.48   0.994
  CM-1323                   36.50       0.00       0.00       0.00       0.00      36.27      36.27        2.84     5.63   0.994
  CM-1324                   36.50       0.00       0.00       0.00       0.00      36.27      36.27        1.38     2.74   0.994
  CM-1325                   36.50       0.00       0.00       0.00       0.00      36.27      36.27        1.85     3.67   0.994
  CM-1326                   36.50       0.00       0.00       0.00       0.00      36.27      36.27        1.44     2.87   0.994
  CM-1327                   36.50       0.00       0.00       0.00       0.00      36.27      36.27        2.51     4.99   0.994
  CM-1328                   36.50       0.00       0.00       0.00       0.00      36.27      36.27        1.49     2.96   0.994
  CM-1329                   36.50       0.00       0.00       0.00       0.00      36.27      36.27        0.54     1.07   0.994
  CM-133                    36.50       0.00       0.00       0.00       0.00      36.27      36.27        0.84     1.68   0.994
  CM-1330                   36.50       0.00       0.00       0.00       0.00      36.27      36.27        2.70     5.36   0.994
  CM-1331                   36.50       0.00       0.00       0.00       0.00      36.27      36.27        0.72     1.43   0.994
  CM-1332                   36.50       0.00       0.00       0.00       0.00      36.27      36.27        0.72     1.43   0.994
  CM-1333                   36.50       0.00       0.00       0.00       0.00      36.27      36.27        0.96     1.92   0.994
  CM-1334                   36.50       0.00       0.00       0.00       0.00      36.27      36.27        1.15     2.27   0.994
  CM-1335                   36.50       0.00       0.00       0.00       0.00      36.27      36.27        1.04     2.07   0.994
  CM-1336                   36.50       0.00       0.00       0.00       0.00      36.27      36.27        0.78     1.55   0.994
  CM-1337                   36.50       0.00       0.00       0.00       0.00      36.27      36.27        0.80     1.59   0.994
  CM-1338                   36.50       0.00       0.00       0.00       0.00      36.27      36.27        0.71     1.41   0.994
  CM-1339                   36.50       0.00       0.00       0.00       0.00      36.27      36.27        1.45     2.88   0.994
  CM-134                    36.50       0.00       0.00       0.00       0.00      36.27      36.27        0.84     1.67   0.994
  CM-1340                   36.50       0.00       0.00       0.00       0.00      36.27      36.27        0.68     1.35   0.994
  CM-1341                   36.50       0.00       0.00       0.00       0.00      36.27      36.27        0.73     1.45   0.994
  CM-1342                   36.50       0.00       0.00       0.00       0.00      36.27      36.27        2.82     5.60   0.994
  CM-1343                   36.50       0.00       0.00       0.00       0.00      36.27      36.27        2.46     4.87   0.994
  CM-1344                   36.50       0.00       0.00       0.00       0.00      36.27      36.27        1.71     3.40   0.994
  CM-1345                   36.50       0.00       0.00       0.00       0.00      36.27      36.27        1.63     3.23   0.994
  CM-1346                   36.50       0.00       0.00       0.00       0.00      36.27      36.27        0.64     1.27   0.994
  CM-1347                   36.50       0.00       0.00       0.00       0.00      36.27      36.27        0.60     1.18   0.994
  CM-1348                   36.50       0.00       0.00       0.00       0.00      36.27      36.27        0.64     1.26   0.994
  CM-1349                   36.50       0.00       0.00       0.00       0.00      36.27      36.27        1.35     2.67   0.994
  CM-135                    36.50       0.00       0.00       0.00       0.00      36.27      36.27        0.65     1.30   0.994
  CM-1350                   36.50       0.00       0.00       0.00       0.00      36.27      36.27        1.36     2.71   0.994
  CM-1351                   36.50       0.00       0.00       0.00       0.00      36.27      36.27        1.34     2.66   0.994
  CM-1352                   36.50       0.00       0.00       0.00       0.00      36.27      36.27        0.70     1.39   0.994
  CM-1353                   36.50       0.00       0.00       0.00       0.00      36.27      36.27        4.77     9.47   0.994
  CM-1354                   36.50       0.00       0.00       0.00       0.00      36.27      36.27        2.35     4.66   0.994
  CM-1355                   36.50       0.00       0.00       0.00       0.00      36.27      36.27        1.15     2.28   0.994
  CM-1356                   36.50       0.00       0.00       0.00       0.00      36.27      36.27        1.32     2.61   0.994
  CM-1357                   36.50       0.00       0.00       0.00       0.00      36.27      36.27        0.67     1.33   0.994
  CM-1358                   36.50       0.00       0.00       0.00       0.00      36.27      36.27        0.56     1.11   0.994
  CM-1359                   36.50       0.00       0.00       0.00       0.00      36.27      36.27        1.14     2.26   0.994
  CM-136                    36.50       0.00       0.00       0.00       0.00      36.27      36.27        0.50     0.99   0.994
  CM-1360                   36.50       0.00       0.00       0.00       0.00      36.27      36.27        1.03     2.04   0.994
  CM-1361                   36.50       0.00       0.00       0.00       0.00      36.27      36.27        0.60     1.18   0.994
  CM-1362                   36.50       0.00       0.00       0.00       0.00      36.27      36.27        1.44     2.86   0.994
  CM-1363                   36.50       0.00       0.00       0.00       0.00      36.27      36.27        0.79     1.56   0.994
  CM-1364                   36.50       0.00       0.00       0.00       0.00      36.27      36.27        1.02     2.02   0.994
  CM-1365                   36.50       0.00       0.00       0.00       0.00      36.27      36.27        0.85     1.68   0.994
  CM-1366                   36.50       0.00       0.00       0.00       0.00      36.27      36.27        1.96     3.90   0.994
  CM-1367                   36.50       0.00       0.00       0.00       0.00      36.27      36.27        1.09     2.16   0.994
  CM-1368                   36.50       0.00       0.00       0.00       0.00      36.27      36.27        1.48     2.95   0.994
  CM-1369                   36.50       0.00       0.00       0.00       0.00      36.27      36.27        0.82     1.62   0.994
  CM-137                    36.50       0.00       0.00       0.00       0.00      36.27      36.27        0.64     1.26   0.994
  CM-1370                   36.50       0.00       0.00       0.00       0.00      36.27      36.27        0.59     1.17   0.994
  CM-1371                   36.50       0.00       0.00       0.00       0.00      36.27      36.27        0.76     1.52   0.994
  CM-1372                   36.50       0.00       0.00       0.00       0.00      36.27      36.27        0.59     1.17   0.994
  CM-1373                   36.50       0.00       0.00       0.00       0.00      36.27      36.27        0.74     1.46   0.994
  CM-1374                   36.50       0.00       0.00       0.00       0.00      36.27      36.27        1.24     2.45   0.994
  CM-1375                   36.50       0.00       0.00       0.00       0.00      36.27      36.27        1.31     2.60   0.994
  CM-1376                   36.50       0.00       0.00       0.00       0.00      36.27      36.27        0.44     0.88   0.994
  CM-1377                   36.50       0.00       0.00       0.00       0.00      36.27      36.27        0.45     0.89   0.994
  CM-1378                   36.50       0.00       0.00       0.00       0.00      36.27      36.27        0.89     1.77   0.994
  CM-1379                   36.50       0.00       0.00       0.00       0.00      36.27      36.27        0.64     1.26   0.994
  CM-138                    36.50       0.00       0.00       0.00       0.00      36.27      36.27        0.50     0.99   0.994
  CM-1380                   36.50       0.00       0.00       0.00       0.00      36.27      36.27        2.42     4.80   0.994
  CM-1381                   36.50       0.00       0.00       0.00       0.00      36.27      36.27        1.67     3.31   0.994
  CM-1382                   36.50       0.00       0.00       0.00       0.00      36.27      36.27        1.19     2.35   0.994
  CM-1383                   36.50       0.00       0.00       0.00       0.00      36.27      36.27        0.11     0.22   0.994
  CM-1384                   36.50       0.00       0.00       0.00       0.00      36.27      36.27        1.40     2.79   0.994
  CM-1385                   36.50       0.00       0.00       0.00       0.00      36.27      36.27        0.61     1.21   0.994
  CM-1386                   36.50       0.00       0.00       0.00       0.00      36.27      36.27        1.33     2.64   0.994
  CM-1387                   36.50       0.00       0.00       0.00       0.00      36.27      36.27        1.30     2.58   0.994
  CM-1388                   36.50       0.00       0.00       0.00       0.00      36.27      36.27        0.46     0.91   0.994
  CM-1389                   36.50       0.00       0.00       0.00       0.00      36.27      36.27        0.48     0.95   0.994
  CM-139                    36.50       0.00       0.00       0.00       0.00      36.27      36.27        0.83     1.65   0.994
  CM-1390                   36.50       0.00       0.00       0.00       0.00      36.27      36.27        1.19     2.36   0.994
  CM-1391                   36.50       0.00       0.00       0.00       0.00      36.27      36.27        1.18     2.35   0.994
  CM-1392                   36.50       0.00       0.00       0.00       0.00      36.27      36.27        1.05     2.08   0.994
  CM-1393                   36.50       0.00       0.00       0.00       0.00      36.27      36.27        1.40     2.77   0.994
  CM-1394                   36.50       0.00       0.00       0.00       0.00      36.27      36.27        0.63     1.26   0.994
  CM-1395                   36.50       0.00       0.00       0.00       0.00      36.27      36.27        1.40     2.78   0.994
  CM-1396                   36.50       0.00       0.00       0.00       0.00      36.27      36.27        0.60     1.20   0.994
  CM-1397                   36.50       0.00       0.00       0.00       0.00      36.27      36.27        1.18     2.35   0.994
  CM-1398                   36.50       0.00       0.00       0.00       0.00      36.27      36.27        1.91     3.79   0.994
  CM-1399                   36.50       0.00       0.00       0.00       0.00      36.27      36.27        1.40     2.78   0.994
  CM-14                     36.50       0.00       0.00       0.00       0.00      36.27      36.27        0.91     1.81   0.994
  CM-140                    36.50       0.00       0.00       0.00       0.00      36.27      36.27        0.67     1.33   0.994
  CM-1400                   36.50       0.00       0.00       0.00       0.00      36.27      36.27        1.09     2.17   0.994
  CM-1401                   36.50       0.00       0.00       0.00       0.00      36.27      36.27        1.74     3.45   0.994
  CM-1402                   36.50       0.00       0.00       0.00       0.00      36.27      36.27        0.54     1.07   0.994
  CM-1403                   36.50       0.00       0.00       0.00       0.00      36.27      36.27        0.75     1.49   0.994
  CM-1404                   36.50       0.00       0.00       0.00       0.00      36.27      36.27        0.68     1.34   0.994
  CM-1405                   36.50       0.00       0.00       0.00       0.00      36.27      36.27        1.30     2.58   0.994
  CM-1406                   36.50       0.00       0.00       0.00       0.00      36.27      36.27        1.96     3.89   0.994
  CM-1407                   36.50       0.00       0.00       0.00       0.00      36.27      36.27        0.57     1.12   0.994
  CM-1408                   36.50       0.00       0.00       0.00       0.00      36.27      36.27        1.25     2.48   0.994
  CM-1409                   36.50       0.00       0.00       0.00       0.00      36.27      36.27        2.39     4.75   0.994
  CM-141                    36.50       0.00       0.00       0.00       0.00      36.27      36.27        0.76     1.51   0.994
  CM-1410                   36.50       0.00       0.00       0.00       0.00      36.27      36.27        1.23     2.45   0.994
  CM-1411                   36.50       0.00       0.00       0.00       0.00      36.27      36.27        1.17     2.31   0.994
  CM-1412                   36.50       0.00       0.00       0.00       0.00      36.27      36.27        4.94     9.81   0.994
  CM-1413                   36.50       0.00       0.00       0.00       0.00      36.27      36.27        0.67     1.32   0.994
  CM-1414                   36.50       0.00       0.00       0.00       0.00      36.27      36.27        0.62     1.23   0.994
  CM-1415                   36.50       0.00       0.00       0.00       0.00      36.27      36.27        1.17     2.31   0.994
  CM-1416                   36.50       0.00       0.00       0.00       0.00      36.27      36.27        1.49     2.97   0.994
  CM-1417                   36.50       0.00       0.00       0.00       0.00      36.27      36.27        0.57     1.13   0.994
  CM-1418                   36.50       0.00       0.00       0.00       0.00      36.27      36.27        5.11    10.15   0.994
  CM-1419                   36.50       0.00       0.00       0.00       0.00      36.27      36.27        0.93     1.85   0.994
  CM-142                    36.50       0.00       0.00       0.00       0.00      36.27      36.27        0.65     1.30   0.994
  CM-1420                   36.50       0.00       0.00       0.00       0.00      36.27      36.27        0.58     1.15   0.994
  CM-1421                   36.50       0.00       0.00       0.00       0.00      36.27      36.27        0.72     1.43   0.994
  CM-1422                   36.50       0.00       0.00       0.00       0.00      36.27      36.27        1.16     2.31   0.994
  CM-1423                   36.50       0.00       0.00       0.00       0.00      36.27      36.27        1.27     2.52   0.994
  CM-1424                   36.50       0.00       0.00       0.00       0.00      36.27      36.27        0.70     1.39   0.994
  CM-1425                   36.50       0.00       0.00       0.00       0.00      36.27      36.27        0.62     1.24   0.994
  CM-1426                   36.50       0.00       0.00       0.00       0.00      36.27      36.27        0.65     1.30   0.994
  CM-1427                   36.50       0.00       0.00       0.00       0.00      36.27      36.27        0.87     1.73   0.994
  CM-1428                   36.50       0.00       0.00       0.00       0.00      36.27      36.27        1.31     2.61   0.994
  CM-1429                   36.50       0.00       0.00       0.00       0.00      36.27      36.27        1.23     2.45   0.994
  CM-143                    36.50       0.00       0.00       0.00       0.00      36.27      36.27        0.77     1.53   0.994
  CM-1430                   36.50       0.00       0.00       0.00       0.00      36.27      36.27        1.39     2.75   0.994
  CM-1431                   36.50       0.00       0.00       0.00       0.00      36.27      36.27        0.88     1.75   0.994
  CM-1432                   36.50       0.00       0.00       0.00       0.00      36.27      36.27        0.54     1.07   0.994
  CM-1433                   36.50       0.00       0.00       0.00       0.00      36.27      36.27        0.77     1.52   0.994
  CM-1434                   36.50       0.00       0.00       0.00       0.00      36.27      36.27        1.77     3.52   0.994
  CM-1435                   36.50       0.00       0.00       0.00       0.00      36.27      36.27        2.70     5.37   0.994
  CM-1436                   36.50       0.00       0.00       0.00       0.00      36.27      36.27        0.55     1.10   0.994
  CM-1437                   36.50       0.00       0.00       0.00       0.00      36.27      36.27        0.57     1.13   0.994
  CM-1438                   36.50       0.00       0.00       0.00       0.00      36.27      36.27        3.49     6.93   0.994
  CM-1439                   36.50       0.00       0.00       0.00       0.00      36.27      36.27        1.47     2.92   0.994
  CM-144                    36.50       0.00       0.00       0.00       0.00      36.27      36.27        0.62     1.24   0.994
  CM-1440                   36.50       0.00       0.00       0.00       0.00      36.27      36.27        0.88     1.75   0.994
  CM-1441                   36.50       0.00       0.00       0.00       0.00      36.27      36.27        1.50     2.97   0.994
  CM-1442                   36.50       0.00       0.00       0.00       0.00      36.27      36.27        1.86     3.69   0.994
  CM-1443                   36.50       0.00       0.00       0.00       0.00      36.27      36.27        1.05     2.09   0.994
  CM-1444                   36.50       0.00       0.00       0.00       0.00      36.27      36.27        1.14     2.26   0.994
  CM-1445                   36.50       0.00       0.00       0.00       0.00      36.27      36.27        1.36     2.69   0.994
  CM-1446                   36.50       0.00       0.00       0.00       0.00      36.27      36.27        0.65     1.30   0.994
  CM-1447                   36.50       0.00       0.00       0.00       0.00      36.27      36.27        0.81     1.60   0.994
  CM-1448                   36.50       0.00       0.00       0.00       0.00      36.27      36.27        0.91     1.80   0.994
  CM-1449                   36.50       0.00       0.00       0.00       0.00      36.27      36.27        1.36     2.69   0.994
  CM-145                    36.50       0.00       0.00       0.00       0.00      36.27      36.27        0.61     1.21   0.994
  CM-1450                   36.50       0.00       0.00       0.00       0.00      36.27      36.27        4.92     9.78   0.994
  CM-1451                   36.50       0.00       0.00       0.00       0.00      36.27      36.27        1.39     2.76   0.994
  CM-1452                   36.50       0.00       0.00       0.00       0.00      36.27      36.27        1.14     2.27   0.994
  CM-1453                   36.50       0.00       0.00       0.00       0.00      36.27      36.27        1.61     3.20   0.994
  CM-1454                   36.50       0.00       0.00       0.00       0.00      36.27      36.27        1.38     2.75   0.994
  CM-1455                   36.50       0.00       0.00       0.00       0.00      36.27      36.27        3.26     6.47   0.994
  CM-1456                   36.50       0.00       0.00       0.00       0.00      36.27      36.27        1.15     2.29   0.994
  CM-1457                   36.50       0.00       0.00       0.00       0.00      36.27      36.27        1.18     2.34   0.994
  CM-1458                   36.50       0.00       0.00       0.00       0.00      36.27      36.27        1.37     2.72   0.994
  CM-1459                   36.50       0.00       0.00       0.00       0.00      36.27      36.27        1.35     2.68   0.994
  CM-146                    36.50       0.00       0.00       0.00       0.00      36.27      36.27        0.62     1.24   0.994
  CM-1460                   36.50       0.00       0.00       0.00       0.00      36.27      36.27        1.70     3.37   0.994
  CM-1461                   36.50       0.00       0.00       0.00       0.00      36.27      36.27        0.78     1.55   0.994
  CM-1462                   36.50       0.00       0.00       0.00       0.00      36.27      36.27        3.29     6.53   0.994
  CM-1463                   36.50       0.00       0.00       0.00       0.00      36.27      36.27        1.66     3.29   0.994
  CM-1464                   36.50       0.00       0.00       0.00       0.00      36.27      36.27        1.41     2.79   0.994
  CM-1465                   36.50       0.00       0.00       0.00       0.00      36.27      36.27        1.30     2.59   0.994
  CM-1466                   36.50       0.00       0.00       0.00       0.00      36.27      36.27        1.13     2.25   0.994
  CM-1467                   36.50       0.00       0.00       0.00       0.00      36.27      36.27        0.56     1.11   0.994
  CM-1468                   36.50       0.00       0.00       0.00       0.00      36.27      36.27        0.64     1.26   0.994
  CM-1469                   36.50       0.00       0.00       0.00       0.00      36.27      36.27        1.26     2.49   0.994
  CM-147                    36.50       0.00       0.00       0.00       0.00      36.27      36.27        0.79     1.56   0.994
  CM-1470                   36.50       0.00       0.00       0.00       0.00      36.27      36.27        0.73     1.44   0.994
  CM-1471                   36.50       0.00       0.00       0.00       0.00      36.27      36.27        0.72     1.43   0.994
  CM-1472                   36.50       0.00       0.00       0.00       0.00      36.27      36.27        0.66     1.31   0.994
  CM-1473                   36.50       0.00       0.00       0.00       0.00      36.27      36.27        1.67     3.31   0.994
  CM-1474                   36.50       0.00       0.00       0.00       0.00      36.27      36.27        2.60     5.15   0.994
  CM-1475                   36.50       0.00       0.00       0.00       0.00      36.27      36.27        1.40     2.78   0.994
  CM-1476                   36.50       0.00       0.00       0.00       0.00      36.27      36.27        2.58     5.13   0.994
  CM-1477                   36.50       0.00       0.00       0.00       0.00      36.27      36.27        1.46     2.90   0.994
  CM-1478                   36.50       0.00       0.00       0.00       0.00      36.27      36.27        0.54     1.06   0.994
  CM-1479                   36.50       0.00       0.00       0.00       0.00      36.27      36.27        0.61     1.20   0.994
  CM-148                    36.50       0.00       0.00       0.00       0.00      36.27      36.27        0.68     1.36   0.994
  CM-1480                   36.50       0.00       0.00       0.00       0.00      36.27      36.27        0.79     1.56   0.994
  CM-1481                   36.50       0.00       0.00       0.00       0.00      36.27      36.27        2.14     4.25   0.994
  CM-1482                   36.50       0.00       0.00       0.00       0.00      36.27      36.27        0.69     1.37   0.994
  CM-1483                   36.50       0.00       0.00       0.00       0.00      36.27      36.27        0.88     1.74   0.994
  CM-1484                   36.50       0.00       0.00       0.00       0.00      36.27      36.27        1.39     2.75   0.994
  CM-1485                   36.50       0.00       0.00       0.00       0.00      36.27      36.27        2.30     4.57   0.994
  CM-1486                   36.50       0.00       0.00       0.00       0.00      36.27      36.27        1.59     3.16   0.994
  CM-1487                   36.50       0.00       0.00       0.00       0.00      36.27      36.27        0.86     1.70   0.994
  CM-1488                   36.50       0.00       0.00       0.00       0.00      36.27      36.27        0.97     1.93   0.994
  CM-1489                   36.50       0.00       0.00       0.00       0.00      36.27      36.27        0.67     1.33   0.994
  CM-149                    36.50       0.00       0.00       0.00       0.00      36.27      36.27        0.79     1.57   0.994
  CM-1490                   36.50       0.00       0.00       0.00       0.00      36.27      36.27        0.79     1.56   0.994
  CM-1491                   36.50       0.00       0.00       0.00       0.00      36.27      36.27        2.23     4.44   0.994
  CM-1492                   36.50       0.00       0.00       0.00       0.00      36.27      36.27        2.59     5.15   0.994
  CM-1493                   36.50       0.00       0.00       0.00       0.00      36.27      36.27        2.04     4.05   0.994
  CM-1494                   36.50       0.00       0.00       0.00       0.00      36.27      36.27        1.07     2.13   0.994
  CM-1495                   36.50       0.00       0.00       0.00       0.00      36.27      36.27        0.78     1.56   0.994
  CM-1496                   36.50       0.00       0.00       0.00       0.00      36.27      36.27        2.61     5.17   0.994
  CM-1497                   36.50       0.00       0.00       0.00       0.00      36.27      36.27        1.55     3.08   0.994
  CM-1498                   36.50       0.00       0.00       0.00       0.00      36.27      36.27        0.62     1.22   0.994
  CM-1499                   36.50       0.00       0.00       0.00       0.00      36.27      36.27        3.20     6.35   0.994
  CM-15                     36.50       0.00       0.00       0.00       0.00      36.27      36.27        1.07     2.12   0.994
  CM-150                    36.50       0.00       0.00       0.00       0.00      36.27      36.27        1.47     2.93   0.994
  CM-1500                   36.50       0.00       0.00       0.00       0.00      36.27      36.27        2.53     5.02   0.994
  CM-1501                   36.50       0.00       0.00       0.00       0.00      36.27      36.27        0.04     0.07   0.994
  CM-1502                   36.50       0.00       0.00       0.00       0.00      36.27      36.27        1.54     3.05   0.994
  CM-1503                   36.50       0.00       0.00       0.00       0.00      36.27      36.27        1.54     3.05   0.994
  CM-1504                   36.50       0.00       0.00       0.00       0.00      36.27      36.27        0.04     0.07   0.994
  CM-1505                   36.50       0.00       0.00       0.00       0.00      36.27      36.27        2.55     5.06   0.994
  CM-1506                   36.50       0.00       0.00       0.00       0.00      36.27      36.27        0.79     1.57   0.994
  CM-1507                   36.50       0.00       0.00       0.00       0.00      36.27      36.27        3.34     6.63   0.994
  CM-1508                   36.50       0.00       0.00       0.00       0.00      36.27      36.27        2.72     5.40   0.994
  CM-1509                   36.50       0.00       0.00       0.00       0.00      36.27      36.27        3.84     7.62   0.994
  CM-151                    36.50       0.00       0.00       0.00       0.00      36.27      36.27        0.79     1.56   0.994
  CM-1510                   36.50       0.00       0.00       0.00       0.00      36.27      36.27        1.50     2.97   0.994
  CM-1511                   36.50       0.00       0.00       0.00       0.00      36.27      36.27        1.22     2.42   0.994
  CM-1512                   36.50       0.00       0.00       0.00       0.00      36.27      36.27        2.55     5.06   0.994
  CM-1513                   36.50       0.00       0.00       0.00       0.00      36.27      36.27        1.19     2.35   0.994
  CM-1514                   36.50       0.00       0.00       0.00       0.00      36.27      36.27        1.20     2.38   0.994
  CM-1515                   36.50       0.00       0.00       0.00       0.00      36.27      36.27        1.13     2.24   0.994
  CM-1516                   36.50       0.00       0.00       0.00       0.00      36.27      36.27        0.04     0.07   0.994
  CM-1517                   36.50       0.00       0.00       0.00       0.00      36.27      36.27        1.73     3.43   0.994
  CM-1518                   36.50       0.00       0.00       0.00       0.00      36.27      36.27        2.52     5.00   0.994
  CM-1519                   36.50       0.00       0.00       0.00       0.00      36.27      36.27        2.75     5.46   0.994
  CM-152                    36.50       0.00       0.00       0.00       0.00      36.27      36.27        0.79     1.57   0.994
  CM-1520                   36.50       0.00       0.00       0.00       0.00      36.27      36.27        1.29     2.56   0.994
  CM-1521                   36.50       0.00       0.00       0.00       0.00      36.27      36.27        1.66     3.30   0.994
  CM-1522                   36.50       0.00       0.00       0.00       0.00      36.27      36.27        0.81     1.61   0.994
  CM-1523                   36.50       0.00       0.00       0.00       0.00      36.27      36.27        0.81     1.61   0.994
  CM-1524                   36.50       0.00       0.00       0.00       0.00      36.27      36.27        1.73     3.43   0.994
[...]
  MH1-5.1                    21.20     21.29     21.20     21.56        21.20
  MH1-50.1.1                 21.29     21.30     21.30     21.70        21.21
  MH1-50.2                   21.53     21.53     21.53      0.01         1.25
  MH1-50.2.1                 21.30     21.30     21.30     21.75        21.21
  MH1-50.3.1                 21.23     21.23     21.24     21.72        21.18
  MH1-50.4.1                 21.21     21.21     21.21      6.99        20.98
  MH1-50.4.1.1               21.17     21.17     21.19      0.01         0.01
  MH1-50.5.1.1               21.16     21.16     21.20      0.01         0.03
  MH1-50.5.2                 21.20     21.20     21.21     20.93        20.94
  MH1-50.6.1                 20.93     20.93     20.93     21.85        20.93
  MH1-50.7.1                 20.93     20.93     20.93      6.63         7.99
  MH1-50.8.1                 20.93     20.93     20.93     19.95        20.07
  MH1-50.9.1                 20.92     20.92     20.93     19.94        19.97
  MH1-51.1                   21.52     21.52     21.53      0.01         0.22
  MH1-52.1                   21.52     21.52     21.52      0.01         0.14
  MH1-52.1.1.1               21.20     21.21     21.22     10.25        11.85
  MH1-52.1.2                 21.36     21.37     21.36     21.63        21.24
  MH1-52.10.1                21.10     21.10     21.11      0.01         0.04
  MH1-52.11.1                20.98     20.98     21.10      0.01         0.01
  MH1-52.12.1                20.95     20.95     20.98      0.01         0.02
  MH1-52.13.1                20.93     20.93     20.95      0.65         1.00
  MH1-52.2.1                 21.36     21.36     21.37     21.54        21.22
  MH1-52.3.1.2               21.22     21.22     21.28     10.66         0.01
  MH1-52.3.2.1               21.21     21.21     21.22     14.35         0.01
  MH1-52.3.3                 21.36     21.37     21.36     21.40        21.28
  MH1-52.3.A1.1              21.23     21.23     21.24     19.96         0.01
  MH1-52.4.1                 21.26     21.27     21.26     21.72        21.19
  MH1-52.5.1                 21.22     21.22     21.22     21.72        21.17
  MH1-52.6.1                 21.22     21.22     21.22     21.73        21.17
  MH1-52.7.1                 21.21     21.21     21.22     21.63        21.11
  MH1-52.7.1.1.1             21.17     21.17     21.19     19.95         0.01
  MH1-52.7.1.2               21.19     21.19     21.20      0.01         0.05
  MH1-52.7.2.1               21.15     21.16     21.17      0.01         0.80
  MH1-52.7.3.1               21.06     21.06     21.16      0.01         0.04
  MH1-52.8.1                 21.20     21.21     21.20     20.93        21.06
  MH1-52.8.1.1               20.96     20.96     20.99      4.38        18.92
  MH1-52.8.2.1               20.92     20.92     20.96      0.01         0.05
  MH1-52.8.3.1               20.91     20.91     20.92      0.01         0.29
  MH1-52.8.4.1               20.88     20.88     20.91      1.00         1.50
  MH1-52.9.1                 21.11     21.11     21.17      0.01         1.82
  MH1-53.1.1                 21.31     21.31     21.36     18.93        18.96
  MH1-53.2.1                 21.28     21.28     21.31     18.92        18.93
  MH1-53.3                   21.51     21.51     21.52      0.01         0.07
  MH1-54.1                   21.51     21.51     21.51      0.01         0.30
  MH1-54.1.1                 21.23     21.23     21.25      2.97         7.13
  MH1-54.2.1                 21.20     21.20     21.23      0.01         0.02
  MH1-55.1                   21.51     21.51     21.51      0.01         0.40
  MH1-55.1.1                 21.20     21.20     21.24      7.65         8.09
  MH1-56.1                   21.50     21.50     21.51      0.01         0.07
  MH1-56.1.1                 21.25     21.25     21.27     17.60        17.65
  MH1-56.2.1                 21.21     21.22     21.25     15.66        16.38
  MH1-57.1                   21.50     21.50     21.50      0.01         0.07
  MH1-57.1.1                 21.20     21.20     21.23      9.04         9.62
  MH1-58.1                   21.49     21.49     21.50      0.01         0.10
  MH1-58.1.2                 21.26     21.26     21.28     19.99        20.27
  MH1-58.10.1                19.99     19.99     20.93      0.01         0.01
  MH1-58.2.1                 21.25     21.25     21.26     18.35        19.09
  MH1-58.3.1                 21.25     21.25     21.25     12.95        20.41
  MH1-58.4.1                 21.25     21.25     21.25     16.96        20.74
  MH1-58.5.1                 21.25     21.25     21.25     15.02        18.99
  MH1-58.6.1                 21.25     21.25     21.25      5.16        11.22
  MH1-58.7.1                 21.25     21.25     21.25     18.97        20.96
  MH1-58.8.1                 21.25     21.25     21.25     18.95        20.16
  MH1-58.9.1                 20.93     20.93     20.97     18.95        18.99
  MH1-59.1                   21.49     21.49     21.49      2.21         0.07
  MH1-59.1.1                 21.27     21.27     21.29     16.15        16.30
  MH1-59.2.1                 21.26     21.26     21.27     15.01        15.62
  MH1-59.3.1                 21.25     21.25     21.26     14.98        15.19
  MH1-59.4.1                 21.20     21.20     21.25      1.93         1.98
  MH1-6.1                    21.29     21.33     21.29     21.58        21.29
  MH1-60.1                   21.48     21.48     21.49     12.50         0.08
  MH1-60.1.1                 21.29     21.29     21.33     18.66        19.40
  MH1-60.1.1.1               21.27     21.27     21.28      9.47         0.01
  MH1-60.2.1                 21.27     21.27     21.29     17.71        17.95
  MH1-60.3.2                 21.26     21.26     21.27      0.01         7.39
  MH1-60.4.1                 21.24     21.24     21.24     11.46        18.39
  MH1-60.5.1                 21.19     21.19     21.24     16.43        16.51
  MH1-61.1                   21.48     21.48     21.48     16.01         0.11
  MH1-61.1.1.1               21.24     21.24     21.28      0.01         0.01
  MH1-61.1.2                 21.28     21.28     21.29     15.04        18.17
  MH1-61.2.2                 21.23     21.23     21.28      0.01         0.01
  MH1-61.3.1                 21.21     21.21     21.23      0.01         0.03
  MH1-62.1                   21.47     21.47     21.48     14.00        18.63
  MH1-62.1.2                 21.23     21.23     21.26     19.93        19.99
  MH1-62.2.1                 21.22     21.22     21.23     20.00        20.82
  MH1-62.2.1.1               21.20     21.21     21.21      0.01         0.32
  MH1-62.2.2.1               21.16     21.17     21.21      0.01         0.02
  MH1-62.3.1                 21.21     21.21     21.22      1.92         2.49
  MH1-63.1                   21.46     21.46     21.47      0.01         3.33
  MH1-64.1                   21.46     21.46     21.46      0.01        18.26
  MH1-64.1.1                 21.46     21.46     21.46     19.23        19.91
  MH1-64.10.1                21.26     21.26     21.27      0.80         0.01
  MH1-64.2.1                 21.46     21.46     21.46     19.19        19.83
  MH1-64.3.1                 21.46     21.46     21.46     18.62        19.35
  MH1-64.3.1.1               21.25     21.25     21.26      3.07         9.65
  MH1-64.3.2.1               21.23     21.23     21.25     15.69        19.71
  MH1-64.3.3.1               21.22     21.23     21.23     10.25        10.84
  MH1-64.3.4.1               21.21     21.22     21.23     20.02        20.55
  MH1-64.3.5.1               21.19     21.20     21.22      5.26         6.09
  MH1-64.4.1                 21.32     21.32     21.34     11.99        12.48
  MH1-64.5.1                 21.31     21.32     21.32     10.56        11.64
  MH1-64.5.1.1               21.29     21.29     21.29     10.07        14.10
  MH1-64.5.2.1               21.26     21.26     21.29      8.71         9.92
  MH1-64.5.3.1               21.24     21.25     21.26      0.62         1.03
  MH1-64.5.4.2               21.23     21.23     21.25     15.94         0.01
  MH1-64.5.5.1               21.22     21.22     21.23      0.01         0.01
  MH1-64.6.1                 21.30     21.30     21.32      0.01         0.02
  MH1-64.7.1                 21.30     21.30     21.30      0.01         0.60
  MH1-64.8.1                 21.30     21.30     21.30      0.01         0.03
  MH1-64.9.1                 21.27     21.27     21.30      0.01         0.02
  MH1-65.2                   21.30     21.30     21.34      0.01         0.01
  MH1-66.1                   21.29     21.29     21.30     15.69        16.30
  MH1-67.1                   21.28     21.28     21.29     15.66        16.28
  MH1-68.2                   21.25     21.25     21.28      7.96         8.29
  MH1-69.1                   21.24     21.24     21.25      5.77         6.27
  MH1-7.1                    21.33     21.36     21.33     21.60        21.33
  MH1-70.1                   21.24     21.25     21.24      0.01         1.84
  MH1-71.1                   21.23     21.23     21.25      0.01         0.01
  MH1-8.1                    21.36     21.42     21.36     21.61        21.36
  MH1-9.1                    21.42     21.45     21.42     21.62        21.42
  MH2-1.1                     0.01      0.01      0.01     21.53         0.01
  MH2-10.1                   21.40     21.44     21.40     21.68        21.40
  MH2-11.1                   21.44     21.48     21.44     21.70        21.44
  MH2-12.2                   21.48     21.51     21.48     21.72        21.48
  MH2-13.1                   21.51     21.53     21.51     21.73        21.51
  MH2-14.1                   21.53     21.54     21.53     21.68        21.53
  MH2-15.1                   21.54     21.55     21.54     21.70        21.54
  MH2-16.1                   21.55     21.58     21.55     21.72        21.55
  MH2-17.1                   21.58     21.58     21.58     13.65        17.93
  MH2-18.1                   21.57     21.57     21.58      4.29         8.04
  MH2-19.1                   21.57     21.57     21.57     13.50        14.93
  MH2-2.1                     0.01     20.93      0.01     21.54         0.01
  MH2-20.1                   21.57     21.57     21.57     12.70        13.35
  MH2-21.2                   21.56     21.56     21.57      0.36        10.07
  MH2-22.1                   21.56     21.56     21.56      0.36         9.25
  MH2-23.2                   21.55     21.55     21.56      4.17         6.98
  MH2-24.1                   21.54     21.55     21.55      1.69         4.10
  MH2-25.1                   21.55     21.55     21.55      0.88         7.61
  MH2-26.1                   21.54     21.54     21.55      6.60         9.33
  MH2-27.2                   21.53     21.53     21.54      3.65         6.15
  MH2-28.2                   21.53     21.53     21.53      3.65         6.68
  MH2-29.2                   21.52     21.52     21.53      2.96         6.33
  MH2-3.1                    20.93     21.02     20.93     21.56        20.93
  MH2-30.2                   21.52     21.52     21.52      0.01         5.53
  MH2-31.1                   21.51     21.51     21.52      0.01         0.08
  MH2-32.2                   21.51     21.51     21.51      0.01         0.10
  MH2-33.1                   21.50     21.50     21.51      0.01         0.09
  MH2-33.1.1                 21.11     21.11     21.13     13.01        13.92
  MH2-33.2.1                 21.09     21.09     21.11      0.01         0.02
  MH2-33.3.1                 21.05     21.05     21.09      0.01         0.01
  MH2-34.1                   21.50     21.50     21.50      0.01         0.08
  MH2-35.1.1                 21.17     21.17     21.19     12.23        12.89
  MH2-35.2                   21.49     21.49     21.50      0.01         0.06
  MH2-35.2.1                 21.16     21.16     21.17     12.03        14.56
  MH2-35.2.1.1               21.13     21.13     21.16      5.81         7.51
  MH2-35.3.1                 21.13     21.13     21.16      6.34         7.34
  MH2-36.1.1                 21.14     21.14     21.17     13.44        14.54
  MH2-36.2                   21.49     21.49     21.49      0.01         0.09
  MH2-36.2.1                 21.11     21.11     21.14      7.93         8.79
  MH2-37.2                   21.49     21.49     21.49      1.18         0.52
  MH2-38.1                   21.48     21.48     21.49      0.01         1.64
  MH2-38.1.1                 21.13     21.13     21.14     18.98        19.22
  MH2-38.2.1                 21.10     21.10     21.13     10.45        11.06
  MH2-39.1                   21.49     21.50     21.49     18.75        19.49
  MH2-4.1                    21.02     21.10     21.02     21.58        21.02
  MH2-40.1                   21.50     21.51     21.50     18.03        18.92
  MH2-40.1.1                 21.34     21.34     21.38     10.74        11.10
  MH2-40.2.1                 21.25     21.26     21.34      0.01         2.26
  MH2-41.1                   21.51     21.51     21.51      6.08        15.52
  MH2-42.1.1.1               21.27     21.27     21.31      0.01         0.01
  MH2-42.1.2                 21.47     21.47     21.49      7.80         0.01
  MH2-42.2                   21.51     21.55     21.51      0.50        21.49
  MH2-42.2.1                 21.39     21.39     21.47      4.26         0.03
  MH2-43.2                   21.55     21.56     21.55      7.56        16.11
  MH2-44.1.1                 21.23     21.23     21.26      0.01         0.02
  MH2-44.2                   21.56     21.58     21.56     21.24        21.28
  MH2-44.2.1                 21.23     21.23     21.23     19.38         0.03
  MH2-44.3.1                 21.20     21.20     21.23     15.84        16.17
  MH2-45.1.1                 21.19     21.19     21.23      0.01         0.02
  MH2-45.2                   21.58     21.60     21.58     21.38        21.33
  MH2-45.2.1                 21.16     21.17     21.19      4.57         4.99
  MH2-46.1.1                 21.29     21.29     21.31      0.01         0.01
  MH2-46.2                   21.60     21.61     21.60     20.36        20.94
  MH2-46.2.1                 21.26     21.26     21.29     11.49        12.82
  MH2-47.1.1                 21.19     21.19     21.20      0.01         3.97
  MH2-47.2                   21.61     21.61     21.61     18.81        19.26
  MH2-47.2.1                 21.14     21.14     21.19      0.01         0.02
  MH2-47.A1.1                21.26     21.26     21.33      0.01         0.01
  MH2-48.1.1                 21.27     21.27     21.33      0.01         0.02
  MH2-48.2                   21.61     21.61     21.61      6.89        12.59
  MH2-48.2.1                 21.24     21.24     21.27      0.01         0.01
  MH2-49.2                   21.61     21.61     21.61      0.01         3.73
  MH2-5.1                    21.10     21.17     21.10     21.60        21.10
  MH2-50.1.1                 21.30     21.30     21.32      0.01         0.02
  MH2-50.2                   21.61     21.61     21.61      0.26        14.63
  MH2-50.2.1                 21.30     21.30     21.30      0.01         7.63
  MH2-50.2.1.1               21.23     21.23     21.30      0.01         0.01
  MH2-50.3.1                 21.25     21.25     21.27      0.95         0.97
  MH2-50.A1.1                21.12     21.12     21.19      3.88         5.87
  MH2-51.2                   21.61     21.61     21.61      7.14        12.38
  MH2-52.1                   21.61     21.62     21.61      7.52        11.12
  MH2-52.1.1                 21.19     21.19     21.20      6.41         7.23
  MH2-52.2.1                 21.09     21.09     21.19      0.01         0.04
  MH2-53.1                   21.62     21.62     21.62      0.39         0.31
  MH2-54.1                   21.62     21.65     21.62      0.38         8.09
  MH2-54.1.1                 21.20     21.20     21.22      3.66         6.21
  MH2-54.2.2                 21.17     21.17     21.20      0.01         0.02
  MH2-54.3.1                 21.12     21.13     21.17     18.18         0.01
  MH2-55.1.1                 21.16     21.16     21.20     21.01        21.10
  MH2-55.2                   21.65     21.65     21.65      0.01         0.28
  MH2-56.1                   21.65     21.65     21.65      0.01         0.09
  MH2-56.1.1                 21.22     21.22     21.26      0.01         0.02
  MH2-56.2.1                 21.20     21.20     21.22      0.01         0.01
  MH2-57.1                   21.65     21.65     21.65      0.01         0.04
  MH2-57.1.1                 21.25     21.25     21.30     14.23         0.02
  MH2-57.2.1.1               21.24     21.24     21.24     18.38         0.01
  MH2-57.2.2                 21.25     21.26     21.25     19.97         0.03
  MH2-57.3.1                 21.21     21.21     21.26      5.86         7.12
  MH2-58.1                   21.65     21.65     21.65      0.01         0.27
  MH2-58.1.1                 21.23     21.23     21.27      0.01         0.03
  MH2-58.2.1                 21.20     21.22     21.23      0.01         0.02
  MH2-59.1.1                 21.29     21.29     21.31      0.01         0.01
  MH2-59.2                   21.65     21.66     21.65      0.45         0.30
  MH2-59.2.1                 21.26     21.26     21.29      0.01         0.02
  MH2-6.1                    21.17     21.25     21.17     21.62        21.17
  MH2-60.1.1                 21.28     21.28     21.32      7.23         0.01
  MH2-60.2                   21.65     21.65     21.66      0.38         0.03
  MH2-61.1.1                 21.40     21.40     21.44      0.01         0.01
  MH2-61.2                   21.63     21.63     21.65      1.01         1.17
  MH2-61.2.1                 21.39     21.39     21.40     16.83         0.01
  MH2-61.2.1.2               21.30     21.30     21.36     20.64         0.01
  MH2-61.3.1                 21.25     21.25     21.26     15.36        15.92
  MH2-62.1.1                 21.22     21.22     21.24      0.01         8.97
  MH2-62.2.1                 21.21     21.21     21.22      0.01         9.00
  MH2-62.3                   21.63     21.63     21.63     15.05         4.33
  MH2-62.3.1                 21.17     21.18     21.21      0.01         0.02
  MH2-62.A1.2                21.22     21.22     21.25      7.94         0.01
  MH2-63.2                   21.62     21.62     21.63     14.78         0.58
  MH2-64.1.1                 21.29     21.29     21.33      0.01         0.01
  MH2-64.2                   21.62     21.62     21.62      0.19         0.52
  MH2-64.2.1                 21.26     21.26     21.29      7.64         8.31
  MH2-65.2                   21.61     21.61     21.62      9.14         0.04
  MH2-66.1                   21.61     21.61     21.61     16.13        16.76
  MH2-66.1.1                 21.29     21.29     21.32     12.19        12.45
  MH2-66.2.1                 21.28     21.28     21.29      0.01         0.03
  MH2-66.2.1.2               21.24     21.24     21.26      0.01         0.01
  MH2-66.3.1                 21.25     21.25     21.28      2.56         3.85
  MH2-67.1                   21.24     21.25     21.25     18.98        19.50
  MH2-67.1.1                 21.22     21.22     21.25      0.01         0.02
  MH2-68.1                   21.22     21.22     21.23     19.93        19.98
  MH2-69.1                   21.01     21.01     21.19      4.34         5.83
  MH2-7.1                    21.25     21.32     21.25     21.63        21.25
  MH2-8.2                    21.32     21.38     21.32     21.65        21.32
  MH2-9.1                    21.38     21.40     21.38     21.66        21.38
  

  Analysis begun on:  Wed Jun 24 14:58:04 2026
  Analysis ended on:  Wed Jun 24 14:58:29 2026
  Total elapsed time: 00:00:25