
  EPA STORM WATER MANAGEMENT MODEL - VERSION 5.2 (Build 5.2.4)
  ------------------------------------------------------------

  WARNING 08: elevation drop exceeds length for Conduit 74
  WARNING 08: elevation drop exceeds length for Conduit 113.1
  WARNING 08: elevation drop exceeds length for Conduit 113-1
  WARNING 04: minimum elevation drop used for Conduit 120
  WARNING 04: minimum elevation drop used for Conduit 136
  WARNING 04: minimum elevation drop used for Conduit 139
  WARNING 04: minimum elevation drop used for Conduit 215
  WARNING 04: minimum elevation drop used for Conduit 430
  WARNING 04: minimum elevation drop used for Conduit 436
  WARNING 04: minimum elevation drop used for Conduit 533
  WARNING 04: minimum elevation drop used for Conduit 556
  WARNING 04: minimum elevation drop used for Conduit 697
  WARNING 04: minimum elevation drop used for Conduit 947
  WARNING 04: minimum elevation drop used for Conduit 977
  WARNING 04: minimum elevation drop used for Conduit 978
  WARNING 04: minimum elevation drop used for Conduit 979
  WARNING 04: minimum elevation drop used for Conduit 980
  WARNING 04: minimum elevation drop used for Conduit 983
  WARNING 04: minimum elevation drop used for Conduit 1016
  WARNING 04: minimum elevation drop used for Conduit 1073
  WARNING 04: minimum elevation drop used for Conduit 1268
  WARNING 04: minimum elevation drop used for Conduit 1317
  WARNING 04: minimum elevation drop used for Conduit 2143
  WARNING 04: minimum elevation drop used for Conduit 2178
  WARNING 04: minimum elevation drop used for Conduit 2339
  WARNING 04: minimum elevation drop used for Conduit 2356
  WARNING 04: minimum elevation drop used for Conduit 2359
  WARNING 04: minimum elevation drop used for Conduit 2398
  WARNING 04: minimum elevation drop used for Conduit 2467
  WARNING 04: minimum elevation drop used for Conduit 2522
  WARNING 04: minimum elevation drop used for Conduit 2573
  WARNING 04: minimum elevation drop used for Conduit 2594
  WARNING 04: minimum elevation drop used for Conduit 2634
  WARNING 04: minimum elevation drop used for Conduit 2645
  WARNING 04: minimum elevation drop used for Conduit 2658
  WARNING 04: minimum elevation drop used for Conduit 2664
  WARNING 04: minimum elevation drop used for Conduit 2665
  WARNING 04: minimum elevation drop used for Conduit 2666
  WARNING 04: minimum elevation drop used for Conduit 2667
  WARNING 04: minimum elevation drop used for Conduit 2682
  WARNING 04: minimum elevation drop used for Conduit 2848
  WARNING 04: minimum elevation drop used for Conduit 2957
  WARNING 04: minimum elevation drop used for Conduit 2974
  WARNING 04: minimum elevation drop used for Conduit 3324
  WARNING 04: minimum elevation drop used for Conduit 3331
  WARNING 04: minimum elevation drop used for Conduit 3332
  WARNING 04: minimum elevation drop used for Conduit 3344
  WARNING 04: minimum elevation drop used for Conduit 3371
  WARNING 04: minimum elevation drop used for Conduit 3388
  WARNING 04: minimum elevation drop used for Conduit 3393
  WARNING 04: minimum elevation drop used for Conduit 3395
  WARNING 04: minimum elevation drop used for Conduit 3403
  WARNING 04: minimum elevation drop used for Conduit 3582
  WARNING 04: minimum elevation drop used for Conduit 3675
  WARNING 04: minimum elevation drop used for Conduit 3820
  WARNING 04: minimum elevation drop used for Conduit 3937
  WARNING 04: minimum elevation drop used for Conduit 3943
  WARNING 04: minimum elevation drop used for Conduit 3945
  WARNING 08: elevation drop exceeds length for Conduit 3993
  WARNING 08: elevation drop exceeds length for Conduit 3999
  WARNING 04: minimum elevation drop used for Conduit 4226
  WARNING 08: elevation drop exceeds length for Conduit 4674
  WARNING 04: minimum elevation drop used for Conduit 4694
  WARNING 08: elevation drop exceeds length for Conduit 4695
  WARNING 03: negative offset ignored for Link 4900.1
  WARNING 04: minimum elevation drop used for Conduit 4900.1
  WARNING 03: negative offset ignored for Link 4901
  WARNING 03: negative offset ignored for Link 4901
  WARNING 04: minimum elevation drop used for Conduit 4901
  WARNING 04: minimum elevation drop used for Conduit 5074
  WARNING 04: minimum elevation drop used for Conduit 5139
  WARNING 04: minimum elevation drop used for Conduit 5141
  WARNING 04: minimum elevation drop used for Conduit 5145
  WARNING 04: minimum elevation drop used for Conduit 5146
  WARNING 04: minimum elevation drop used for Conduit 5148
  WARNING 08: elevation drop exceeds length for Conduit 5151
  WARNING 08: elevation drop exceeds length for Conduit 5153
  WARNING 04: minimum elevation drop used for Conduit 5340
  WARNING 04: minimum elevation drop used for Conduit 5345
  WARNING 04: minimum elevation drop used for Conduit 5350
  WARNING 04: minimum elevation drop used for Conduit 5430
  WARNING 04: minimum elevation drop used for Conduit 5546
  WARNING 04: minimum elevation drop used for Conduit 5677
  WARNING 04: minimum elevation drop used for Conduit 5727
  WARNING 04: minimum elevation drop used for Conduit 5730
  WARNING 04: minimum elevation drop used for Conduit 5750
  WARNING 04: minimum elevation drop used for Conduit 5755
  WARNING 04: minimum elevation drop used for Conduit 5926
  WARNING 04: minimum elevation drop used for Conduit 5928
  WARNING 04: minimum elevation drop used for Conduit 5929
  WARNING 04: minimum elevation drop used for Conduit 5933
  WARNING 04: minimum elevation drop used for Conduit 5934
  WARNING 04: minimum elevation drop used for Conduit 5935
  WARNING 04: minimum elevation drop used for Conduit 5939
  WARNING 04: minimum elevation drop used for Conduit 5940
  WARNING 04: minimum elevation drop used for Conduit 5952
  WARNING 04: minimum elevation drop used for Conduit 5954
  WARNING 04: minimum elevation drop used for Conduit 5955
  WARNING 04: minimum elevation drop used for Conduit 5956
  WARNING 04: minimum elevation drop used for Conduit 5987
  WARNING 04: minimum elevation drop used for Conduit 5988
  WARNING 04: minimum elevation drop used for Conduit 5998
  WARNING 04: minimum elevation drop used for Conduit 6038
  WARNING 04: minimum elevation drop used for Conduit 6042
  WARNING 04: minimum elevation drop used for Conduit 6043
  WARNING 04: minimum elevation drop used for Conduit 6102
  WARNING 04: minimum elevation drop used for Conduit 6134
  WARNING 04: minimum elevation drop used for Conduit 6144
  WARNING 04: minimum elevation drop used for Conduit 6175
  WARNING 04: minimum elevation drop used for Conduit 6207
  WARNING 04: minimum elevation drop used for Conduit 6209
  WARNING 04: minimum elevation drop used for Conduit 6223
  WARNING 04: minimum elevation drop used for Conduit 6242.1
  WARNING 04: minimum elevation drop used for Conduit 6243
  WARNING 04: minimum elevation drop used for Conduit 6244
  WARNING 04: minimum elevation drop used for Conduit 6258
  WARNING 04: minimum elevation drop used for Conduit 6422
  WARNING 04: minimum elevation drop used for Conduit 6423
  WARNING 04: minimum elevation drop used for Conduit 6563
  WARNING 04: minimum elevation drop used for Conduit 7092
  WARNING 04: minimum elevation drop used for Conduit 7125
  WARNING 04: minimum elevation drop used for Conduit 7238
  WARNING 04: minimum elevation drop used for Conduit 7239
  WARNING 04: minimum elevation drop used for Conduit 7240
  WARNING 04: minimum elevation drop used for Conduit 7241
  WARNING 04: minimum elevation drop used for Conduit 7242
  WARNING 04: minimum elevation drop used for Conduit 7243
  WARNING 08: elevation drop exceeds length for Conduit 74-1
  WARNING 04: minimum elevation drop used for Conduit 139-1
  WARNING 04: minimum elevation drop used for Conduit 434-1
  WARNING 04: minimum elevation drop used for Conduit 497-1
  WARNING 04: minimum elevation drop used for Conduit 497-2
  WARNING 04: minimum elevation drop used for Conduit maji16
  WARNING 04: minimum elevation drop used for Conduit out115
  WARNING 04: minimum elevation drop used for Conduit out20
  WARNING 03: negative offset ignored for Link 13448.1
  WARNING 03: negative offset ignored for Link 13448.1
  WARNING 04: minimum elevation drop used for Conduit 1156
  WARNING 03: negative offset ignored for Link 13458.1
  WARNING 03: negative offset ignored for Link 13458.1
  WARNING 03: negative offset ignored for Link 13460.1
  WARNING 03: negative offset ignored for Link 13460.1
  WARNING 03: negative offset ignored for Link 13463.1
  WARNING 03: negative offset ignored for Link 13463.1
  WARNING 03: negative offset ignored for Link 13465.1
  WARNING 03: negative offset ignored for Link 13465.1
  WARNING 03: negative offset ignored for Link 13467.1
  WARNING 03: negative offset ignored for Link 13467.1
  WARNING 03: negative offset ignored for Link 13469.1
  WARNING 03: negative offset ignored for Link 13469.1
  WARNING 03: negative offset ignored for Link 13471.1
  WARNING 03: negative offset ignored for Link 13471.1
  WARNING 03: negative offset ignored for Link 13487.1
  WARNING 03: negative offset ignored for Link 13487.1
  WARNING 03: negative offset ignored for Link 13489.1
  WARNING 03: negative offset ignored for Link 13489.1
  WARNING 04: minimum elevation drop used for Conduit kuraout
  WARNING 04: minimum elevation drop used for Conduit Link13550
  WARNING 03: negative offset ignored for Link todai8seki
  WARNING 03: negative offset ignored for Link todai8seki
  
  *************
  Element Count
  *************
  Number of rain gages ...... 1
  Number of subcatchments ... 4968
  Number of nodes ........... 6470
  Number of links ........... 6682
  Number of pollutants ...... 0
  Number of land uses ....... 0
  
  
  ****************
  Raingage Summary
  ****************
                                                      Data       Recording
  Name                 Data Source                    Type       Interval 
  ------------------------------------------------------------------------
  plan50mm             RN#1                           INTENSITY    5 min.
  
  
  ********************
  Subcatchment Summary
  ********************
  Name                       Area     Width   %Imperv    %Slope Rain Gage            Outlet              
  -----------------------------------------------------------------------------------------------------------
  152134001#1                0.12     38.10     90.00    2.0000 plan50mm             152134001           
  152134002#1                0.22     69.90     90.00    2.0000 plan50mm             152134002           
  152134003#1                0.12     38.10     90.00    2.0000 plan50mm             152134003           
  152134004#1                0.10     31.80     90.00    2.0000 plan50mm             152134004           
  152134005#1                0.09     28.60     90.00    2.0000 plan50mm             152134005           
  152134047#1                0.14     44.50     90.00    2.0000 plan50mm             152134047           
  152134048#1                0.08     25.40     90.00    2.0000 plan50mm             152134048           
  152134053#1                0.05     15.90     90.00    2.0000 plan50mm             152134053           
  152143006#1                0.32    101.70     90.00    2.0000 plan50mm             152143006           
  152143007#1                0.16     50.80     90.00    2.0000 plan50mm             152143007           
  152143008#1                0.13     41.30     90.00    2.0000 plan50mm             152143008           
  152143009#1                0.01      3.20     90.00    2.0000 plan50mm             152143009           
  152143010#1                0.09     28.60     90.00    2.0000 plan50mm             152143010           
  152143011#1                0.16     50.80     90.00    2.0000 plan50mm             152143011           
  152143012#1                0.09     28.60     90.00    2.0000 plan50mm             152143012           
  152143013#1                0.21     66.70     90.00    2.0000 plan50mm             152143013           
  152143014#1                0.01      3.20     90.00    2.0000 plan50mm             152143014           
  152143015#1                0.10     31.80     90.00    2.0000 plan50mm             152143015           
  152143016#1                0.07     22.20     90.00    2.0000 plan50mm             152143016           
  152143017#1                0.01      3.20     90.00    2.0000 plan50mm             152143017           
  152143018#1                0.12     38.10     90.00    2.0000 plan50mm             152143018           
  152143019#1                0.17     54.00     90.00    2.0000 plan50mm             152143019           
  152143020#1                0.11     35.00     90.00    2.0000 plan50mm             152143020           
  152143021#1                0.23     73.10     90.00    2.0000 plan50mm             152143021           
  152143022#1                0.20     63.60     90.00    2.0000 plan50mm             152143022           
  152143023#1                0.09     28.60     90.00    2.0000 plan50mm             152143023           
  152143024#1                0.01      3.20     90.00    2.0000 plan50mm             152143024           
  152143025#1                0.09     28.60     90.00    2.0000 plan50mm             152143025           
  152143026#1                0.16     50.80     90.00    2.0000 plan50mm             152143026           
  152143027#1                0.10     31.80     90.00    2.0000 plan50mm             152143027           
  152143028#1                0.09     28.60     90.00    2.0000 plan50mm             152143028           
  152143029#1                0.13     41.30     90.00    2.0000 plan50mm             152143029           
  152143030#1                0.08     25.40     90.00    2.0000 plan50mm             152143030           
  152143031#1                0.10     31.80     90.00    2.0000 plan50mm             152143031           
  152143032#1                0.09     28.60     90.00    2.0000 plan50mm             152143032           
  152144001#1                0.04     12.70     90.00    2.0000 plan50mm             152144001           
  152144002#1                0.04     12.70     90.00    2.0000 plan50mm             152144002           
  152144003#1                0.01      3.20     90.00    2.0000 plan50mm             152144003           
  152144004#1                0.09     28.60     90.00    2.0000 plan50mm             152144004           
  152144005#1                0.12     38.10     90.00    2.0000 plan50mm             152144005           
  152144006#1                0.11     35.00     90.00    2.0000 plan50mm             152144006           
  152144007#1                0.07     22.20     90.00    2.0000 plan50mm             152144007           
  152144008#1                0.02      6.40     90.00    2.0000 plan50mm             152144008           
  152144010#1                0.07     22.20     90.00    2.0000 plan50mm             152144010           
  152144011#1                0.19     60.40     90.00    2.0000 plan50mm             152144011           
  152144014#1                0.13     41.30     90.00    2.0000 plan50mm             152144014           
  152144017#1                0.12     38.10     90.00    2.0000 plan50mm             152144017           
  152144018#1                0.02      6.40     90.00    2.0000 plan50mm             152144018           
  152144019#1                0.05     15.90     90.00    2.0000 plan50mm             152144019           
  152144021#1                0.11     35.00     90.00    2.0000 plan50mm             152144021           
  152144022#1                0.09     28.60     90.00    2.0000 plan50mm             152144022           
  152144023#1                0.07     22.20     90.00    2.0000 plan50mm             152144023           
  152144024#1                0.10     31.80     90.00    2.0000 plan50mm             152144024           
  152144025#1                0.08     25.40     90.00    2.0000 plan50mm             152144025           
  152144032#1                0.15     47.70     90.00    2.0000 plan50mm             152144032           
  152144033#1                0.11     35.00     90.00    2.0000 plan50mm             152144033           
  152144034#1                0.16     50.80     90.00    2.0000 plan50mm             152144034           
  152144035#1                0.07     22.20     90.00    2.0000 plan50mm             152144035           
  152144037#1                0.06     19.10     90.00    2.0000 plan50mm             152144037           
  152144038#1                0.07     22.20     90.00    2.0000 plan50mm             152144038           
  152144039#1                0.08     25.40     90.00    2.0000 plan50mm             152144039           
  152144043#1                0.08     25.40     90.00    2.0000 plan50mm             152144043           
  152144044#1                0.05     15.90     90.00    2.0000 plan50mm             152144044           
  152144045#1                0.05     15.90     90.00    2.0000 plan50mm             152144045           
  152144049#1                0.09     28.60     90.00    2.0000 plan50mm             152144049           
  152144050#1                0.08     25.40     90.00    2.0000 plan50mm             152144050           
  152144051#1                0.07     22.20     90.00    2.0000 plan50mm             152144051           
  152144052#1                0.04     12.70     90.00    2.0000 plan50mm             152144052           
  152144054#1                0.06     19.10     90.00    2.0000 plan50mm             152144054           
  152144055#1                0.09     28.60     90.00    2.0000 plan50mm             152144055           
  152144056#1                0.01      3.20     90.00    2.0000 plan50mm             152144056           
  152144057#1                0.07     22.20     90.00    2.0000 plan50mm             152144057           
  152144058#1                0.05     15.90     90.00    2.0000 plan50mm             152144058           
  152144060#1                0.06     19.10     90.00    2.0000 plan50mm             152144060           
  152144061#1                0.07     22.20     90.00    2.0000 plan50mm             152144061           
  152144062#1                0.05     15.90     90.00    2.0000 plan50mm             152144062           
  152144063#1                0.06     19.10     90.00    2.0000 plan50mm             152144063           
  152144064#1                0.04     12.70     90.00    2.0000 plan50mm             152144064           
  152144065#1                0.17     54.00     90.00    2.0000 plan50mm             152144065           
  152144066#1                0.09     28.60     90.00    2.0000 plan50mm             152144066           
  152144068#1                0.05     15.90     90.00    2.0000 plan50mm             152144068           
  152144070#1                0.13     41.30     90.00    2.0000 plan50mm             152144070           
  152144074#1                0.02      6.40     90.00    2.0000 plan50mm             152144074           
  152144076#1                0.04     12.70     90.00    2.0000 plan50mm             152144076           
  152144077#1                0.05     15.90     90.00    2.0000 plan50mm             152144077           
  152144078#1                0.06     19.10     90.00    2.0000 plan50mm             152144078           
  152241001#1                0.15     47.70     90.00    2.0000 plan50mm             152241001           
  152241008#1                0.11     35.00     90.00    2.0000 plan50mm             152241008           
  152241009#1                0.05     15.90     90.00    2.0000 plan50mm             152241009           
  152241010#1                0.26     82.60     90.00    2.0000 plan50mm             152241010           
  152241011#1                0.04     12.70     90.00    2.0000 plan50mm             152241011           
  152241012#1                0.09     28.60     90.00    2.0000 plan50mm             152241012           
  152241013#1                0.06     19.10     90.00    2.0000 plan50mm             152241013           
  152241014#1                0.12     38.10     90.00    2.0000 plan50mm             152241014           
  152241015#1                0.11     35.00     90.00    2.0000 plan50mm             152241015           
  152241016#1                0.07     22.20     90.00    2.0000 plan50mm             152241016           
  152241017#1                0.21     66.70     90.00    2.0000 plan50mm             152241017           
  152241018#1                0.01      3.20     90.00    2.0000 plan50mm             152241018           
  152241019#1                0.07     22.20     90.00    2.0000 plan50mm             152241019           
  152241020#1                0.02      6.40     90.00    2.0000 plan50mm             152241020           
  152241021#1                0.09     28.60     90.00    2.0000 plan50mm             152241021           
  152241022#1                0.18     57.20     90.00    2.0000 plan50mm             152241022           
  152241023#1                0.08     25.40     90.00    2.0000 plan50mm             152241023           
  152241024#1                0.06     19.10     90.00    2.0000 plan50mm             152241024           
  152241025#1                0.05     15.90     90.00    2.0000 plan50mm             152241025           
  152241026#1                0.05     15.90     90.00    2.0000 plan50mm             152241026           
  152241029#1                0.05     15.90     90.00    2.0000 plan50mm             152241029           
  152241031#1                0.08     25.40     90.00    2.0000 plan50mm             152241031           
  152241033#1                0.10     31.80     90.00    2.0000 plan50mm             152241033           
  152241035#1                0.10     31.80     90.00    2.0000 plan50mm             152241035           
  152241036#1                0.06     19.10     90.00    2.0000 plan50mm             152241036           
  152241037#1                0.11     35.00     90.00    2.0000 plan50mm             152241037           
  152241038#1                0.04     12.70     90.00    2.0000 plan50mm             152241038           
  152241039#1                0.04     12.70     90.00    2.0000 plan50mm             152241039           
  152241055#1                0.07     22.20     90.00    2.0000 plan50mm             152241055           
  152241056#1                0.08     25.40     90.00    2.0000 plan50mm             152241056           
  152241057#1                0.11     35.00     90.00    2.0000 plan50mm             152241057           
  152241058#1                0.06     19.10     90.00    2.0000 plan50mm             152241058           
  152241059#1                0.03      9.50     90.00    2.0000 plan50mm             152241059           
  152241060#1                0.10     31.80     90.00    2.0000 plan50mm             152241060           
  152241061#1                0.13     41.30     90.00    2.0000 plan50mm             152241061           
  152242011#1                0.19     60.40     90.00    2.0000 plan50mm             152242011           
  152242012#1                0.08     25.40     90.00    2.0000 plan50mm             152242012           
  152242062#1                0.08     25.40     90.00    2.0000 plan50mm             152242062           
  162113002#1                0.52    165.30     90.00    2.0000 plan50mm             162113002           
  162113004#1                0.66    209.70     90.00    2.0000 plan50mm             162113004           
  162113008#1                0.17     54.00     90.00    2.0000 plan50mm             162113008           
  162113009#1                0.12     38.10     90.00    2.0000 plan50mm             162113009           
  162113010#1                0.17     54.00     90.00    2.0000 plan50mm             162113010           
  162113011#1                0.21     66.70     90.00    2.0000 plan50mm             162113011           
  162113012#1                0.06     19.10     90.00    2.0000 plan50mm             162113012           
  162113014#1                0.18     57.20     90.00    2.0000 plan50mm             162113014           
  162113015#1                0.27     85.80     90.00    2.0000 plan50mm             162113015           
  162113016#1                0.11     35.00     90.00    2.0000 plan50mm             162113016           
  162113017#1                0.25     79.50     90.00    2.0000 plan50mm             162113017           
  162113018#1                0.01      3.20     90.00    2.0000 plan50mm             162113018           
  162113019#1                0.18     57.20     90.00    2.0000 plan50mm             162113019           
  162113020#1                0.10     31.80     90.00    2.0000 plan50mm             162113020           
  162113021#1                0.14     44.50     90.00    2.0000 plan50mm             162113021           
  162113022#1                0.08     25.40     90.00    2.0000 plan50mm             162113022           
  162113023#1                0.16     50.80     90.00    2.0000 plan50mm             162113023           
  162113024#1                0.17     54.00     90.00    2.0000 plan50mm             162113024           
  162113025#1                0.05     15.90     90.00    2.0000 plan50mm             162113025           
  162113026#1                0.19     60.40     90.00    2.0000 plan50mm             162113026           
  162113027#1                0.23     73.10     90.00    2.0000 plan50mm             162113027           
  162113028#1                0.12     38.10     90.00    2.0000 plan50mm             162113028           
  162113029#1                0.10     31.80     90.00    2.0000 plan50mm             162113029           
  162113030#1                0.13     41.30     90.00    2.0000 plan50mm             162113030           
  162113031#1                0.05     15.90     90.00    2.0000 plan50mm             162113031           
  162113032#1                0.04     12.70     90.00    2.0000 plan50mm             162113032           
  162113033#1                0.05     15.90     90.00    2.0000 plan50mm             162113033           
  162113034#1                0.06     19.10     90.00    2.0000 plan50mm             162113034           
  162113035#1                0.06     19.10     90.00    2.0000 plan50mm             162113035           
  162113036#1                0.11     35.00     90.00    2.0000 plan50mm             162113036           
  162113037#1                0.19     60.40     90.00    2.0000 plan50mm             162113037           
  162113038#1                0.33    104.90     90.00    2.0000 plan50mm             162113038           
  162113039#1                0.25     79.50     90.00    2.0000 plan50mm             162113039           
  162113040#1                0.37    117.60     90.00    2.0000 plan50mm             162113040           
  162113041#1                0.39    123.90     90.00    2.0000 plan50mm             162113041           
  162114001#1                0.01      3.20     90.00    2.0000 plan50mm             162114001           
  162114002#1                0.01      3.20     90.00    2.0000 plan50mm             162114002           
  162114003#1                0.01      3.20     90.00    2.0000 plan50mm             162114003           
  162114004#1                0.01      3.20     90.00    2.0000 plan50mm             162114004           
  162114005#1                0.04     12.70     90.00    2.0000 plan50mm             162114005           
  162114006#1                0.01      3.20     90.00    2.0000 plan50mm             162114006           
  162114007#1                0.09     28.60     90.00    2.0000 plan50mm             162114007           
  162114008#1                0.14     44.50     90.00    2.0000 plan50mm             162114008           
  162114009#1                0.02      6.40     90.00    2.0000 plan50mm             162114009           
  162114010#1                0.01      3.20     90.00    2.0000 plan50mm             162114010           
  162114011#1                0.17     54.00     90.00    2.0000 plan50mm             162114011           
  162114012#1                0.04     12.70     90.00    2.0000 plan50mm             162114012           
  162114013#1                0.01      3.20     90.00    2.0000 plan50mm             162114013           
  162114014#1                0.11     35.00     90.00    2.0000 plan50mm             162114014           
  162114017#1                0.06     19.10     90.00    2.0000 plan50mm             162114017           
  162114022#1                0.11     35.00     90.00    2.0000 plan50mm             162114022           
  162114027#1                0.16     50.80     90.00    2.0000 plan50mm             162114027           
  162114028#1                0.13     41.30     90.00    2.0000 plan50mm             162114028           
  162114029#1                0.09     28.60     90.00    2.0000 plan50mm             162114029           
  162114030#1                0.07     22.20     90.00    2.0000 plan50mm             162114030           
  162114031#1                0.12     38.10     90.00    2.0000 plan50mm             162114031           
  162114032#1                0.07     22.20     90.00    2.0000 plan50mm             162114032           
  162114033#1                0.08     25.40     90.00    2.0000 plan50mm             162114033           
  162114034#1                0.10     31.80     90.00    2.0000 plan50mm             162114034           
  162114035#1                0.06     19.10     90.00    2.0000 plan50mm             162114035           
  162114036#1                0.07     22.20     90.00    2.0000 plan50mm             162114036           
  162114037#1                0.01      3.20     90.00    2.0000 plan50mm             162114037           
  162114038#1                0.02      6.40     90.00    2.0000 plan50mm             162114038           
  162114039#1                0.07     22.20     90.00    2.0000 plan50mm             162114039           
  162114040#1                0.05     15.90     90.00    2.0000 plan50mm             162114040           
  162114041#1                0.01      3.20     90.00    2.0000 plan50mm             162114041           
  162114042#1                0.18     57.20     90.00    2.0000 plan50mm             162114042           
  162114043#1                0.07     22.20     90.00    2.0000 plan50mm             162114043           
  162114044#1                0.07     22.20     90.00    2.0000 plan50mm             162114044           
  162114046#1                0.01      3.20     90.00    2.0000 plan50mm             162114046           
  162114047#1                0.07     22.20     90.00    2.0000 plan50mm             162114047           
  162114048#1                0.07     22.20     90.00    2.0000 plan50mm             162114048           
  162114049#1                0.05     15.90     90.00    2.0000 plan50mm             162114049           
  162114053#1                0.09     28.60     90.00    2.0000 plan50mm             162114053           
  162114054#1                0.14     44.50     90.00    2.0000 plan50mm             162114054           
  162114055#1                0.03      9.50     90.00    2.0000 plan50mm             162114055           
  162114056#1                0.13     41.30     90.00    2.0000 plan50mm             162114056           
  162114057#1                0.07     22.20     90.00    2.0000 plan50mm             162114057           
  162114058#1                0.04     12.70     90.00    2.0000 plan50mm             162114058           
  162114059#1                0.04     12.70     90.00    2.0000 plan50mm             162114059           
  162114060#1                0.02      6.40     90.00    2.0000 plan50mm             162114060           
  162114061#1                0.12     38.10     90.00    2.0000 plan50mm             162114061           
  162114062#1                0.14     44.50     90.00    2.0000 plan50mm             162114062           
  162114063#1                0.05     15.90     90.00    2.0000 plan50mm             162114063           
  162114064#1                0.22     69.90     90.00    2.0000 plan50mm             162114064           
  162114065#1                0.21     66.70     90.00    2.0000 plan50mm             162114065           
  162114066#1                0.15     47.70     90.00    2.0000 plan50mm             162114066           
  162114067#1                0.05     15.90     90.00    2.0000 plan50mm             162114067           
  162114068#1                0.13     41.30     90.00    2.0000 plan50mm             162114068           
  162114069#1                0.01      3.20     90.00    2.0000 plan50mm             162114069           
  162114070#1                0.14     44.50     90.00    2.0000 plan50mm             162114070           
  162114071#1                0.14     44.50     90.00    2.0000 plan50mm             162114071           
  162114801#1                0.03      9.50     90.00    2.0000 plan50mm             162114801           
  162114807#1                0.04     12.70     90.00    2.0000 plan50mm             162114807           
  162114810#1                0.01      3.20     90.00    2.0000 plan50mm             162114810           
  162114811#1                0.06     19.10     90.00    2.0000 plan50mm             162114811           
  162114860#1                0.02      6.40     90.00    2.0000 plan50mm             162114860           
  162114869#1                0.03      9.50     90.00    2.0000 plan50mm             162114869           
  162122007#1                0.27     85.80     90.00    2.0000 plan50mm             162122007           
  162122008#1                0.07     22.20     90.00    2.0000 plan50mm             162122008           
  162122010#1                0.31     98.50     90.00    2.0000 plan50mm             162122010           
  162123002#1                0.31     98.50     90.00    2.0000 plan50mm             162123002           
  162123003#1                0.05     15.90     90.00    2.0000 plan50mm             162123003           
  162123004#1                0.16     50.80     90.00    2.0000 plan50mm             162123004           
  162123005#1                0.09     28.60     90.00    2.0000 plan50mm             162123005           
  162123006#1                0.11     35.00     90.00    2.0000 plan50mm             162123006           
  162123007#1                0.11     35.00     90.00    2.0000 plan50mm             162123007           
  162123008#1                0.02      6.40     90.00    2.0000 plan50mm             162123008           
  162123010#1                0.17     54.00     90.00    2.0000 plan50mm             162123010           
  162123011#1                0.05     15.90     90.00    2.0000 plan50mm             162123011           
  162123017#1                0.14     44.50     90.00    2.0000 plan50mm             162123017           
  162123018#1                0.10     31.80     90.00    2.0000 plan50mm             162123018           
  162123019#1                0.07     22.20     90.00    2.0000 plan50mm             162123019           
  162123020#1                0.13     41.30     90.00    2.0000 plan50mm             162123020           
  162123021#1                0.02      6.40     90.00    2.0000 plan50mm             162123021           
  162123022#1                0.07     22.20     90.00    2.0000 plan50mm             162123022           
  162123023#1                0.18     57.20     90.00    2.0000 plan50mm             162123023           
  162123024#1                0.08     25.40     90.00    2.0000 plan50mm             162123024           
  162123025#1                0.08     25.40     90.00    2.0000 plan50mm             162123025           
  162123026#1                0.13     41.30     90.00    2.0000 plan50mm             162123026           
  162123027#1                0.11     35.00     90.00    2.0000 plan50mm             162123027           
  162123028#1                0.29     92.20     90.00    2.0000 plan50mm             162123028           
  162123029#1                0.51    162.10     90.00    2.0000 plan50mm             162123029           
  162123035#1                0.08     25.40     90.00    2.0000 plan50mm             162123035           
  162123036#1                0.16     50.80     90.00    2.0000 plan50mm             162123036           
  162123037#1                0.15     47.70     90.00    2.0000 plan50mm             162123037           
  162123040#1                0.13     41.30     90.00    2.0000 plan50mm             162123040           
  162123041#1                0.14     44.50     90.00    2.0000 plan50mm             162123041           
  162123043#1                0.08     25.40     90.00    2.0000 plan50mm             162123043           
  162123044#1                0.06     19.10     90.00    2.0000 plan50mm             162123044           
  162123045#1                0.02      6.40     90.00    2.0000 plan50mm             162123045           
  162123046#1                0.04     12.70     90.00    2.0000 plan50mm             162123046           
  162123048#1                0.04     12.70     90.00    2.0000 plan50mm             162123048           
  162123049#1                0.03      9.50     90.00    2.0000 plan50mm             162123049           
  162123050#1                0.06     19.10     90.00    2.0000 plan50mm             162123050           
  162123051#1                0.05     15.90     90.00    2.0000 plan50mm             162123051           
  162123052#1                0.03      9.50     90.00    2.0000 plan50mm             162123052           
  162123057#1                0.17     54.00     90.00    2.0000 plan50mm             162123057           
  162123058#1                0.16     50.80     90.00    2.0000 plan50mm             162123058           
  162123059#1                0.08     25.40     90.00    2.0000 plan50mm             162123059           
  162123060#1                0.08     25.40     90.00    2.0000 plan50mm             162123060           
  162123061#1                0.09     28.60     90.00    2.0000 plan50mm             162123061           
  162123063#1                0.14     44.50     90.00    2.0000 plan50mm             162123063           
  162123064#1                0.10     31.80     90.00    2.0000 plan50mm             162123064           
  162123065#1                0.07     22.20     90.00    2.0000 plan50mm             162123065           
  162123066#1                0.13     41.30     90.00    2.0000 plan50mm             162123066           
  162123067#1                0.12     38.10     90.00    2.0000 plan50mm             162123067           
  162123068#1                0.02      6.40     90.00    2.0000 plan50mm             162123068           
  162123069#1                0.05     15.90     90.00    2.0000 plan50mm             162123069           
  162123070#1                0.03      9.50     90.00    2.0000 plan50mm             162123070           
  162123071#1                0.09     28.60     90.00    2.0000 plan50mm             162123071           
  162123840#1                0.02      6.40     90.00    2.0000 plan50mm             162123840           
  162124001#1                0.07     22.20     90.00    2.0000 plan50mm             162124001           
  162124002#1                0.03      9.50     90.00    2.0000 plan50mm             162124002           
  162124003#1                0.04     12.70     90.00    2.0000 plan50mm             162124003           
  162124004#1                0.04     12.70     90.00    2.0000 plan50mm             162124004           
  162124005#1                0.07     22.20     90.00    2.0000 plan50mm             162124005           
  162124006#1                0.05     15.90     90.00    2.0000 plan50mm             162124006           
  162124007#1                0.13     41.30     90.00    2.0000 plan50mm             162124007           
  162124008#1                0.13     41.30     90.00    2.0000 plan50mm             162124008           
  162124009#1                0.03      9.50     90.00    2.0000 plan50mm             162124009           
  162124010#1                0.02      6.40     90.00    2.0000 plan50mm             162124010           
  162124011#1                0.17     54.00     90.00    2.0000 plan50mm             162124011           
  162124012#1                0.15     47.70     90.00    2.0000 plan50mm             162124012           
  162124016#1                0.01      3.20     90.00    2.0000 plan50mm             162124016           
  162124017#1                0.07     22.20     90.00    2.0000 plan50mm             162124017           
  162124019#1                0.07     22.20     90.00    2.0000 plan50mm             162124019           
  162124020#1                0.16     50.80     90.00    2.0000 plan50mm             162124020           
  162124022#1                0.09     28.60     90.00    2.0000 plan50mm             162124022           
  162124023#1                0.08     25.40     90.00    2.0000 plan50mm             162124023           
  162124024#1                0.10     31.80     90.00    2.0000 plan50mm             162124024           
  162124025#1                0.12     38.10     90.00    2.0000 plan50mm             162124025           
  162124027#1                0.01      3.20     90.00    2.0000 plan50mm             162124027           
  162124028#1                0.03      9.50     90.00    2.0000 plan50mm             162124028           
  162124029#1                0.08     25.40     90.00    2.0000 plan50mm             162124029           
  162124030#1                0.07     22.20     90.00    2.0000 plan50mm             162124030           
  162124031#1                0.11     35.00     90.00    2.0000 plan50mm             162124031           
  162124032#1                0.08     25.40     90.00    2.0000 plan50mm             162124032           
  162124033#1                0.10     31.80     90.00    2.0000 plan50mm             162124033           
  162124034#1                0.10     31.80     90.00    2.0000 plan50mm             162124034           
  162124035#1                0.16     50.80     90.00    2.0000 plan50mm             162124035           
  162124036#1                0.12     38.10     90.00    2.0000 plan50mm             162124036           
  162124037#1                0.43    136.70     90.00    2.0000 plan50mm             162124037           
  162124038#1                0.08     25.40     90.00    2.0000 plan50mm             162124038           
  162124039#1                0.12     38.10     90.00    2.0000 plan50mm             162124039           
  162124040#1                0.16     50.80     90.00    2.0000 plan50mm             162124040           
  162124041#1                0.10     31.80     90.00    2.0000 plan50mm             162124041           
  162124042#1                0.14     44.50     90.00    2.0000 plan50mm             162124042           
  162124044#1                0.16     50.80     90.00    2.0000 plan50mm             162124044           
  162124045#1                0.19     60.40     90.00    2.0000 plan50mm             162124045           
  162124046#1                0.15     47.70     90.00    2.0000 plan50mm             162124046           
  162124047#1                0.14     44.50     90.00    2.0000 plan50mm             162124047           
  162124048#1                0.01      3.20     90.00    2.0000 plan50mm             162124048           
  162124049#1                0.11     35.00     90.00    2.0000 plan50mm             162124049           
  162124050#1                0.10     31.80     90.00    2.0000 plan50mm             162124050           
  162124052#1                0.21     66.70     90.00    2.0000 plan50mm             162124052           
  162124053#1                0.08     25.40     90.00    2.0000 plan50mm             162124053           
  162132001#1                0.72    228.80     90.00    2.0000 plan50mm             162132001           
  162132002#1                0.57    181.10     90.00    2.0000 plan50mm             162132002           
  162132003#1                0.65    206.60     90.00    2.0000 plan50mm             162132003           
  162132004#1                0.68    216.10     90.00    2.0000 plan50mm             162132004           
  162132005#1                0.04     12.70     90.00    2.0000 plan50mm             162132005           
  162132006#1                0.13     41.30     90.00    2.0000 plan50mm             162132006           
  162132007#1                0.09     28.60     90.00    2.0000 plan50mm             162132007           
  162132008#1                0.09     28.60     90.00    2.0000 plan50mm             162132008           
  162132009#1                0.04     12.70     90.00    2.0000 plan50mm             162132009           
  162132010#1                0.11     35.00     90.00    2.0000 plan50mm             162132010           
  162132011#1                0.10     31.80     90.00    2.0000 plan50mm             162132011           
  162132012#1                0.14     44.50     90.00    2.0000 plan50mm             162132012           
  162132013#1                0.03      9.50     90.00    2.0000 plan50mm             162132013           
  162132014#1                0.18     57.20     90.00    2.0000 plan50mm             162132014           
  162132015#1                0.16     50.80     90.00    2.0000 plan50mm             162132015           
  162132017#1                0.13     41.30     90.00    2.0000 plan50mm             162132017           
  162132018#1                0.11     35.00     90.00    2.0000 plan50mm             162132018           
  162132019#1                0.14     44.50     90.00    2.0000 plan50mm             162132019           
  162132021#1                0.01      3.20     90.00    2.0000 plan50mm             162132021           
  162132022#1                0.13     41.30     90.00    2.0000 plan50mm             162132022           
  162132023#1                0.15     47.70     90.00    2.0000 plan50mm             162132023           
  162132024#1                0.15     47.70     90.00    2.0000 plan50mm             162132024           
  162132025#1                0.35    111.20     90.00    2.0000 plan50mm             162132025           
  162132026#1                0.32    101.70     90.00    2.0000 plan50mm             162132026           
  162132027#1                0.05     15.90     90.00    2.0000 plan50mm             162132027           
  162132028#1                0.26     82.60     90.00    2.0000 plan50mm             162132028           
  162133001#1                0.03      9.50     90.00    2.0000 plan50mm             162133001           
  162133002#1                0.13     41.30     90.00    2.0000 plan50mm             162133002           
  162133003#1                0.13     41.30     90.00    2.0000 plan50mm             162133003           
  162133004#1                0.01      3.20     90.00    2.0000 plan50mm             162133004           
  162133005#1                0.03      9.50     90.00    2.0000 plan50mm             162133005           
  162133006#1                0.15     47.70     90.00    2.0000 plan50mm             162133006           
  162133007#1                0.22     69.90     90.00    2.0000 plan50mm             162133007           
  162133008#1                0.18     57.20     90.00    2.0000 plan50mm             162133008           
  162133009#1                0.01      3.20     90.00    2.0000 plan50mm             162133009           
  162133010#1                0.01      3.20     90.00    2.0000 plan50mm             162133010           
  162133011#1                0.08     25.40     90.00    2.0000 plan50mm             162133011           
  162133012#1                0.05     15.90     90.00    2.0000 plan50mm             162133012           
  162133013#1                0.27     85.80     90.00    2.0000 plan50mm             162133013           
  162133014#1                0.20     63.60     90.00    2.0000 plan50mm             162133014           
  162133015#1                0.01      3.20     90.00    2.0000 plan50mm             162133015           
  162133021#1                0.13     41.30     90.00    2.0000 plan50mm             162133021           
  162133022#1                0.10     31.80     90.00    2.0000 plan50mm             162133022           
  162133023#1                0.28     89.00     90.00    2.0000 plan50mm             162133023           
  162133024#1                0.26     82.60     90.00    2.0000 plan50mm             162133024           
  162133026#1                0.10     31.80     90.00    2.0000 plan50mm             162133026           
  162133027#1                0.05     15.90     90.00    2.0000 plan50mm             162133027           
  162133028#1                0.14     44.50     90.00    2.0000 plan50mm             162133028           
  162133029#1                0.06     19.10     90.00    2.0000 plan50mm             162133029           
  162133030#1                0.16     50.80     90.00    2.0000 plan50mm             162133030           
  162133031#1                0.16     50.80     90.00    2.0000 plan50mm             162133031           
  162133036#1                0.09     28.60     90.00    2.0000 plan50mm             162133036           
  162133037#1                0.12     38.10     90.00    2.0000 plan50mm             162133037           
  162133039#1                0.06     19.10     90.00    2.0000 plan50mm             162133039           
  162133041#1                0.16     50.80     90.00    2.0000 plan50mm             162133041           
  162133042#1                0.13     41.30     90.00    2.0000 plan50mm             162133042           
  162133043#1                0.04     12.70     90.00    2.0000 plan50mm             162133043           
  162133044#1                0.01      3.20     90.00    2.0000 plan50mm             162133044           
  162133045#1                0.18     57.20     90.00    2.0000 plan50mm             162133045           
  162133046#1                0.08     25.40     90.00    2.0000 plan50mm             162133046           
  162133805#1                0.05     15.90     90.00    2.0000 plan50mm             162133805           
  162133827#1                0.01      3.20     90.00    2.0000 plan50mm             162133827           
  162133835#1                0.01      3.20     90.00    2.0000 plan50mm             162133835           
  162133842#1                0.08     25.40     90.00    2.0000 plan50mm             162133842           
  162134001#1                0.19     60.40     90.00    2.0000 plan50mm             162134001           
  162134002#1                0.01      3.20     90.00    2.0000 plan50mm             162134002           
  162134003#1                0.10     31.80     90.00    2.0000 plan50mm             162134003           
  162134004#1                0.01      3.20     90.00    2.0000 plan50mm             162134004           
  162134005#1                0.08     25.40     90.00    2.0000 plan50mm             162134005           
  162134006#1                0.06     19.10     90.00    2.0000 plan50mm             162134006           
  162134007#1                0.12     38.10     90.00    2.0000 plan50mm             162134007           
  162134008#1                0.01      3.20     90.00    2.0000 plan50mm             162134008           
  162134011#1                0.01      3.20     90.00    2.0000 plan50mm             162134011           
  162134012#1                0.05     15.90     90.00    2.0000 plan50mm             162134012           
  162134013#1                0.13     41.30     90.00    2.0000 plan50mm             162134013           
  162134014#1                0.01      3.20     90.00    2.0000 plan50mm             162134014           
  162134015#1                0.06     19.10     90.00    2.0000 plan50mm             162134015           
  162134016#1                0.04     12.70     90.00    2.0000 plan50mm             162134016           
  162134017#1                0.05     15.90     90.00    2.0000 plan50mm             162134017           
  162134018#1                0.13     41.30     90.00    2.0000 plan50mm             162134018           
  162134019#1                0.01      3.20     90.00    2.0000 plan50mm             162134019           
  162134020#1                0.13     41.30     90.00    2.0000 plan50mm             162134020           
  162134022#1                0.03      9.50     90.00    2.0000 plan50mm             162134022           
  162134026#1                0.13     41.30     90.00    2.0000 plan50mm             162134026           
  162134028#1                0.02      6.40     90.00    2.0000 plan50mm             162134028           
  162134029#1                0.10     31.80     90.00    2.0000 plan50mm             162134029           
  162134030#1                0.05     15.90     90.00    2.0000 plan50mm             162134030           
  162134031#1                0.01      3.20     90.00    2.0000 plan50mm             162134031           
  162134032#1                0.09     28.60     90.00    2.0000 plan50mm             162134032           
  162134033#1                0.01      3.20     90.00    2.0000 plan50mm             162134033           
  162134034#1                0.08     25.40     90.00    2.0000 plan50mm             162134034           
  162134035#1                0.01      3.20     90.00    2.0000 plan50mm             162134035           
  162134041#1                0.18     57.20     90.00    2.0000 plan50mm             162134041           
  162134042#1                0.14     44.50     90.00    2.0000 plan50mm             162134042           
  162134043#1                0.17     54.00     90.00    2.0000 plan50mm             162134043           
  162134046#1                0.09     28.60     90.00    2.0000 plan50mm             162134046           
  162134047#1                0.13     41.30     90.00    2.0000 plan50mm             162134047           
  162134049#1                0.04     12.70     90.00    2.0000 plan50mm             162134049           
  162134050#1                0.10     31.80     90.00    2.0000 plan50mm             162134050           
  162134051#1                0.15     47.70     90.00    2.0000 plan50mm             162134051           
  162134054#1                0.16     50.80     90.00    2.0000 plan50mm             162134054           
  162134055#1                0.17     54.00     90.00    2.0000 plan50mm             162134055           
  162134056#1                0.20     63.60     90.00    2.0000 plan50mm             162134056           
  162134057#1                0.19     60.40     90.00    2.0000 plan50mm             162134057           
  162134059#1                0.12     38.10     90.00    2.0000 plan50mm             162134059           
  162134060#1                0.07     22.20     90.00    2.0000 plan50mm             162134060           
  162134061#1                0.11     35.00     90.00    2.0000 plan50mm             162134061           
  162134811#1                0.06     19.10     90.00    2.0000 plan50mm             162134811           
  162134825#1                0.16     50.80     90.00    2.0000 plan50mm             162134825           
  162134849#1                0.09     28.60     90.00    2.0000 plan50mm             162134849           
  162134851#1                0.08     25.40     90.00    2.0000 plan50mm             162134851           
  162141007#1                0.64    203.40     90.00    2.0000 plan50mm             162141007           
  162141008#1                0.07     22.20     90.00    2.0000 plan50mm             162141008           
  162142002#1                0.07     22.20     90.00    2.0000 plan50mm             162142002           
  162142003#1                0.07     22.20     90.00    2.0000 plan50mm             162142003           
  162142004#1                0.10     31.80     90.00    2.0000 plan50mm             162142004           
  162142005#1                0.12     38.10     90.00    2.0000 plan50mm             162142005           
  162142006#1                0.11     35.00     90.00    2.0000 plan50mm             162142006           
  162142007#1                0.05     15.90     90.00    2.0000 plan50mm             162142007           
  162142008#1                0.21     66.70     90.00    2.0000 plan50mm             162142008           
  162142009#1                0.01      3.20     90.00    2.0000 plan50mm             162142009           
  162142010#1                0.06     19.10     90.00    2.0000 plan50mm             162142010           
  162142011#1                0.05     15.90     90.00    2.0000 plan50mm             162142011           
  162142015#1                0.05     15.90     90.00    2.0000 plan50mm             162142015           
  162142018#1                0.02      6.40     90.00    2.0000 plan50mm             162142018           
  162142021#1                0.03      9.50     90.00    2.0000 plan50mm             162142021           
  162142025#1                0.04     12.70     90.00    2.0000 plan50mm             162142025           
  162142027#1                0.09     28.60     90.00    2.0000 plan50mm             162142027           
  162142028#1                0.11     35.00     90.00    2.0000 plan50mm             162142028           
  162142029#1                0.10     31.80     90.00    2.0000 plan50mm             162142029           
  162142030#1                0.06     19.10     90.00    2.0000 plan50mm             162142030           
  162142031#1                0.07     22.20     90.00    2.0000 plan50mm             162142031           
  162142034#1                0.15     47.70     90.00    2.0000 plan50mm             162142034           
  162142035#1                0.20     63.60     90.00    2.0000 plan50mm             162142035           
  162142037#1                0.35    111.20     90.00    2.0000 plan50mm             162142037           
  162142038#1                0.16     50.80     90.00    2.0000 plan50mm             162142038           
  162142040#1                0.07     22.20     90.00    2.0000 plan50mm             162142040           
  162142041#1                0.12     38.10     90.00    2.0000 plan50mm             162142041           
  162142042#1                0.56    178.00     90.00    2.0000 plan50mm             162142042           
  162142044#1                0.11     35.00     90.00    2.0000 plan50mm             162142044           
  162142045#1                0.23     73.10     90.00    2.0000 plan50mm             162142045           
  162142046#1                0.15     47.70     90.00    2.0000 plan50mm             162142046           
  162142047#1                0.01      3.20     90.00    2.0000 plan50mm             162142047           
  162142049#1                0.11     35.00     90.00    2.0000 plan50mm             162142049           
  162142050#1                0.13     41.30     90.00    2.0000 plan50mm             162142050           
  162142051#1                0.08     25.40     90.00    2.0000 plan50mm             162142051           
  162142053#1                0.10     31.80     90.00    2.0000 plan50mm             162142053           
  162142054#1                0.07     22.20     90.00    2.0000 plan50mm             162142054           
  162142839#1                1.83    581.60     90.00    2.0000 plan50mm             162142839           
  162143004#1                0.21     66.70     90.00    2.0000 plan50mm             162143004           
  162143006#1                0.17     54.00     90.00    2.0000 plan50mm             162143006           
  162143007#1                0.09     28.60     90.00    2.0000 plan50mm             162143007           
  162143008#1                0.07     22.20     90.00    2.0000 plan50mm             162143008           
  162143009#1                0.17     54.00     90.00    2.0000 plan50mm             162143009           
  162143019#1                0.12     38.10     90.00    2.0000 plan50mm             162143019           
  162143020#1                0.16     50.80     90.00    2.0000 plan50mm             162143020           
  162143021#1                0.11     35.00     90.00    2.0000 plan50mm             162143021           
  162143022#1                0.06     19.10     90.00    2.0000 plan50mm             162143022           
  162143023#1                0.02      6.40     90.00    2.0000 plan50mm             162143023           
  162143024#1                0.15     47.70     90.00    2.0000 plan50mm             162143024           
  162143025#1                0.02      6.40     90.00    2.0000 plan50mm             162143025           
  162143026#1                0.14     44.50     90.00    2.0000 plan50mm             162143026           
  162143027#1                0.10     31.80     90.00    2.0000 plan50mm             162143027           
  162143028#1                0.02      6.40     90.00    2.0000 plan50mm             162143028           
  162143029#1                0.01      3.20     90.00    2.0000 plan50mm             162143029           
  162143031#1                0.12     38.10     90.00    2.0000 plan50mm             162143031           
  162143032#1                0.12     38.10     90.00    2.0000 plan50mm             162143032           
  162143034#1                0.20     63.60     90.00    2.0000 plan50mm             162143034           
  162143035#1                0.10     31.80     90.00    2.0000 plan50mm             162143035           
  162143039#1                0.15     47.70     90.00    2.0000 plan50mm             162143039           
  162143040#1                0.03      9.50     90.00    2.0000 plan50mm             162143040           
  162143041#1                0.12     38.10     90.00    2.0000 plan50mm             162143041           
  162143042#1                0.13     41.30     90.00    2.0000 plan50mm             162143042           
  162143043#1                0.11     35.00     90.00    2.0000 plan50mm             162143043           
  162143045#1                0.11     35.00     90.00    2.0000 plan50mm             162143045           
  162143046#1                0.14     44.50     90.00    2.0000 plan50mm             162143046           
  162143047#1                0.01      3.20     90.00    2.0000 plan50mm             162143047           
  162143048#1                0.10     31.80     90.00    2.0000 plan50mm             162143048           
  162143052#1                0.15     47.70     90.00    2.0000 plan50mm             162143052           
  162143053#1                0.10     31.80     90.00    2.0000 plan50mm             162143053           
  162143054#1                0.06     19.10     90.00    2.0000 plan50mm             162143054           
  162143055#1                0.17     54.00     90.00    2.0000 plan50mm             162143055           
  162143056#1                0.10     31.80     90.00    2.0000 plan50mm             162143056           
  162143057#1                0.02      6.40     90.00    2.0000 plan50mm             162143057           
  162143058#1                0.08     25.40     90.00    2.0000 plan50mm             162143058           
  162143059#1                0.04     12.70     90.00    2.0000 plan50mm             162143059           
  162143061#1                0.12     38.10     90.00    2.0000 plan50mm             162143061           
  162143062#1                0.11     35.00     90.00    2.0000 plan50mm             162143062           
  162143063#1                0.10     31.80     90.00    2.0000 plan50mm             162143063           
  162143064#1                0.14     44.50     90.00    2.0000 plan50mm             162143064           
  162143065#1                0.05     15.90     90.00    2.0000 plan50mm             162143065           
  162143066#1                0.24     76.30     90.00    2.0000 plan50mm             162143066           
  162143067#1                0.07     22.20     90.00    2.0000 plan50mm             162143067           
  162143068#1                0.15     47.70     90.00    2.0000 plan50mm             162143068           
  162144001#1                0.13     41.30     90.00    2.0000 plan50mm             162144001           
  162144002#1                0.13     41.30     90.00    2.0000 plan50mm             162144002           
  162144003#1                0.05     15.90     90.00    2.0000 plan50mm             162144003           
  162144004#1                0.27     85.80     90.00    2.0000 plan50mm             162144004           
  162144005#1                0.19     60.40     90.00    2.0000 plan50mm             162144005           
  162144006#1                0.13     41.30     90.00    2.0000 plan50mm             162144006           
  162144007#1                0.01      3.20     90.00    2.0000 plan50mm             162144007           
  162144008#1                0.05     15.90     90.00    2.0000 plan50mm             162144008           
  162144009#1                0.13     41.30     90.00    2.0000 plan50mm             162144009           
  162144010#1                0.10     31.80     90.00    2.0000 plan50mm             162144010           
  162144011#1                0.08     25.40     90.00    2.0000 plan50mm             162144011           
  162144012#1                0.12     38.10     90.00    2.0000 plan50mm             162144012           
  162144013#1                0.08     25.40     90.00    2.0000 plan50mm             162144013           
  162144014#1                0.09     28.60     90.00    2.0000 plan50mm             162144014           
  162144015#1                0.07     22.20     90.00    2.0000 plan50mm             162144015           
  162144016#1                0.13     41.30     90.00    2.0000 plan50mm             162144016           
  162144017#1                0.08     25.40     90.00    2.0000 plan50mm             162144017           
  162144018#1                0.24     76.30     90.00    2.0000 plan50mm             162144018           
  162144019#1                0.13     41.30     90.00    2.0000 plan50mm             162144019           
  162144020#1                0.19     60.40     90.00    2.0000 plan50mm             162144020           
  162144021#1                0.11     35.00     90.00    2.0000 plan50mm             162144021           
  162144022#1                0.17     54.00     90.00    2.0000 plan50mm             162144022           
  162144023#1                0.11     35.00     90.00    2.0000 plan50mm             162144023           
  162144024#1                0.05     15.90     90.00    2.0000 plan50mm             162144024           
  162144030#1                0.07     22.20     90.00    2.0000 plan50mm             162144030           
  162144031#1                0.10     31.80     90.00    2.0000 plan50mm             162144031           
  162144032#1                0.09     28.60     90.00    2.0000 plan50mm             162144032           
  162144033#1                0.07     22.20     90.00    2.0000 plan50mm             162144033           
  162144034#1                0.07     22.20     90.00    2.0000 plan50mm             162144034           
  162144035#1                0.05     15.90     90.00    2.0000 plan50mm             162144035           
  162144036#1                0.09     28.60     90.00    2.0000 plan50mm             162144036           
  162144037#1                0.12     38.10     90.00    2.0000 plan50mm             162144037           
  162144038#1                0.10     31.80     90.00    2.0000 plan50mm             162144038           
  162144039#1                0.07     22.20     90.00    2.0000 plan50mm             162144039           
  162144040#1                0.10     31.80     90.00    2.0000 plan50mm             162144040           
  162144041#1                0.13     41.30     90.00    2.0000 plan50mm             162144041           
  162144042#1                0.13     41.30     90.00    2.0000 plan50mm             162144042           
  162144043#1                0.18     57.20     90.00    2.0000 plan50mm             162144043           
  162144044#1                0.16     50.80     90.00    2.0000 plan50mm             162144044           
  162144045#1                0.12     38.10     90.00    2.0000 plan50mm             162144045           
  162211002#1                0.15     47.70     90.00    2.0000 plan50mm             162211002           
  162211003#1                0.05     15.90     90.00    2.0000 plan50mm             162211003           
  162211004#1                0.01      3.20     90.00    2.0000 plan50mm             162211004           
  162211006#1                0.12     38.10     90.00    2.0000 plan50mm             162211006           
  162211008#1                0.06     19.10     90.00    2.0000 plan50mm             162211008           
  162211010#1                0.08     25.40     90.00    2.0000 plan50mm             162211010           
  162211011#1                0.08     25.40     90.00    2.0000 plan50mm             162211011           
  162211013#1                0.02      6.40     90.00    2.0000 plan50mm             162211013           
  162211014#1                0.01      3.20     90.00    2.0000 plan50mm             162211014           
  162211018#1                0.08     25.40     90.00    2.0000 plan50mm             162211018           
  162211019#1                0.03      9.50     90.00    2.0000 plan50mm             162211019           
  162211022#1                0.14     44.50     90.00    2.0000 plan50mm             162211022           
  162211023#1                0.01      3.20     90.00    2.0000 plan50mm             162211023           
  162211024#1                0.03      9.50     90.00    2.0000 plan50mm             162211024           
  162211025#1                0.07     22.20     90.00    2.0000 plan50mm             162211025           
  162211035#1                0.16     50.80     90.00    2.0000 plan50mm             162211035           
  162211036#1                0.06     19.10     90.00    2.0000 plan50mm             162211036           
  162211037#1                0.06     19.10     90.00    2.0000 plan50mm             162211037           
  162211038#1                0.14     44.50     90.00    2.0000 plan50mm             162211038           
  162211040#1                0.07     22.20     90.00    2.0000 plan50mm             162211040           
  162211041#1                0.05     15.90     90.00    2.0000 plan50mm             162211041           
  162211042#1                0.12     38.10     90.00    2.0000 plan50mm             162211042           
  162211044#1                0.02      6.40     90.00    2.0000 plan50mm             162211044           
  162211045#1                0.11     35.00     90.00    2.0000 plan50mm             162211045           
  162211046#1                0.08     25.40     90.00    2.0000 plan50mm             162211046           
  162211047#1                0.03      9.50     90.00    2.0000 plan50mm             162211047           
  162211049#1                0.08     25.40     90.00    2.0000 plan50mm             162211049           
  162211050#1                0.06     19.10     90.00    2.0000 plan50mm             162211050           
  162211051#1                0.07     22.20     90.00    2.0000 plan50mm             162211051           
  162211052#1                0.05     15.90     90.00    2.0000 plan50mm             162211052           
  162211053#1                0.06     19.10     90.00    2.0000 plan50mm             162211053           
  162211054#1                0.04     12.70     90.00    2.0000 plan50mm             162211054           
  162211056#1                0.04     12.70     90.00    2.0000 plan50mm             162211056           
  162211060#1                0.01      3.20     90.00    2.0000 plan50mm             162211060           
  162211061#1                0.10     31.80     90.00    2.0000 plan50mm             162211061           
  162211062#1                0.08     25.40     90.00    2.0000 plan50mm             162211062           
  162211063#1                0.06     19.10     90.00    2.0000 plan50mm             162211063           
  162211064#1                0.06     19.10     90.00    2.0000 plan50mm             162211064           
  162211066#1                0.09     28.60     90.00    2.0000 plan50mm             162211066           
  162211068#1                0.03      9.50     90.00    2.0000 plan50mm             162211068           
  162211069#1                0.08     25.40     90.00    2.0000 plan50mm             162211069           
  162211071#1                0.05     15.90     90.00    2.0000 plan50mm             162211071           
  162211072#1                0.08     25.40     90.00    2.0000 plan50mm             162211072           
  162211074#1                0.02      6.40     90.00    2.0000 plan50mm             162211074           
  162211075#1                0.06     19.10     90.00    2.0000 plan50mm             162211075           
  162211077#1                0.09     28.60     90.00    2.0000 plan50mm             162211077           
  162211079#1                0.04     12.70     90.00    2.0000 plan50mm             162211079           
  162211080#1                0.01      3.20     90.00    2.0000 plan50mm             162211080           
  162211081#1                0.04     12.70     90.00    2.0000 plan50mm             162211081           
  162211082#1                0.04     12.70     90.00    2.0000 plan50mm             162211082           
  162211083#1                0.10     31.80     90.00    2.0000 plan50mm             162211083           
  162211084#1                0.01      3.20     90.00    2.0000 plan50mm             162211084           
  162211085#1                0.01      3.20     90.00    2.0000 plan50mm             162211085           
  162211086#1                0.10     31.80     90.00    2.0000 plan50mm             162211086           
  162211087#1                0.05     15.90     90.00    2.0000 plan50mm             162211087           
  162211844#1                0.10     31.80     90.00    2.0000 plan50mm             162211844           
  162211850#1                0.01      3.20     90.00    2.0000 plan50mm             162211850           
  162211852#1                0.02      6.40     90.00    2.0000 plan50mm             162211852           
  162212001#1                0.10     31.80     90.00    2.0000 plan50mm             162212001           
  162212005#1                0.08     25.40     90.00    2.0000 plan50mm             162212005           
  162212006#1                0.06     19.10     90.00    2.0000 plan50mm             162212006           
  162212007#1                0.07     22.20     90.00    2.0000 plan50mm             162212007           
  162212008#1                0.07     22.20     90.00    2.0000 plan50mm             162212008           
  162212009#1                0.06     19.10     90.00    2.0000 plan50mm             162212009           
  162212010#1                0.07     22.20     90.00    2.0000 plan50mm             162212010           
  162212011#1                0.02      6.40     90.00    2.0000 plan50mm             162212011           
  162212012#1                0.09     28.60     90.00    2.0000 plan50mm             162212012           
  162212013#1                0.02      6.40     90.00    2.0000 plan50mm             162212013           
  162212015#1                0.04     12.70     90.00    2.0000 plan50mm             162212015           
  162212016#1                0.04     12.70     90.00    2.0000 plan50mm             162212016           
  162212017#1                0.07     22.20     90.00    2.0000 plan50mm             162212017           
  162212018#1                0.06     19.10     90.00    2.0000 plan50mm             162212018           
  162212020#1                0.07     22.20     90.00    2.0000 plan50mm             162212020           
  162212022#1                0.01      3.20     90.00    2.0000 plan50mm             162212022           
  162212063#1                0.15     47.70     90.00    2.0000 plan50mm             162212063           
  162212064#1                0.16     50.80     90.00    2.0000 plan50mm             162212064           
  162212067#1                0.02      6.40     90.00    2.0000 plan50mm             162212067           
  162212069#1                0.07     22.20     90.00    2.0000 plan50mm             162212069           
  162212070#1                0.03      9.50     90.00    2.0000 plan50mm             162212070           
  162221001#1                0.09     28.60     90.00    2.0000 plan50mm             162221001           
  162221002#1                0.05     15.90     90.00    2.0000 plan50mm             162221002           
  162221003#1                0.01      3.20     90.00    2.0000 plan50mm             162221003           
  162221004#1                0.12     38.10     90.00    2.0000 plan50mm             162221004           
  162221005#1                0.17     54.00     90.00    2.0000 plan50mm             162221005           
  162221006#1                0.02      6.40     90.00    2.0000 plan50mm             162221006           
  162221007#1                0.14     44.50     90.00    2.0000 plan50mm             162221007           
  162221008#1                0.24     76.30     90.00    2.0000 plan50mm             162221008           
  162221009#1                0.04     12.70     90.00    2.0000 plan50mm             162221009           
  162221010#1                0.06     19.10     90.00    2.0000 plan50mm             162221010           
  162221011#1                0.09     28.60     90.00    2.0000 plan50mm             162221011           
  162221012#1                0.04     12.70     90.00    2.0000 plan50mm             162221012           
  162221013#1                0.09     28.60     90.00    2.0000 plan50mm             162221013           
  162221014#1                0.01      3.20     90.00    2.0000 plan50mm             162221014           
  162221015#1                0.08     25.40     90.00    2.0000 plan50mm             162221015           
  162221017#1                0.08     25.40     90.00    2.0000 plan50mm             162221017           
  162221018#1                0.01      3.20     90.00    2.0000 plan50mm             162221018           
  162221024#1                0.06     19.10     90.00    2.0000 plan50mm             162221024           
  162221025#1                0.04     12.70     90.00    2.0000 plan50mm             162221025           
  162221026#1                0.11     35.00     90.00    2.0000 plan50mm             162221026           
  162221027#1                0.11     35.00     90.00    2.0000 plan50mm             162221027           
  162221028#1                0.08     25.40     90.00    2.0000 plan50mm             162221028           
[...]
  412-1            CIRCULAR             0.64     0.32     0.16     0.64        1     0.50
  434-1            CIRCULAR             1.00     0.79     0.25     1.00        1     0.12
  446-1            CIRCULAR             0.76     0.45     0.19     0.76        1     1.17
  452-1            CIRCULAR             0.74     0.43     0.18     0.74        1     0.45
  497-1            CIRCULAR             0.60     0.28     0.15     0.60        1     0.02
  497-2            CIRCULAR             0.60     0.28     0.15     0.60        1     0.04
  519-1            CIRCULAR             0.25     0.05     0.06     0.25        1     0.15
  537-1            CIRCULAR             1.20     1.13     0.30     1.20        1     2.14
  maji10           RECT_CLOSED          1.42     2.41     0.39     1.70        1     3.63
  maji10-1         RECT_CLOSED          1.42     2.41     0.39     1.70        1     4.21
  maji11           RECT_CLOSED          1.42     2.41     0.39     1.70        1     1.97
  maji11-1         RECT_CLOSED          1.42     2.41     0.39     1.70        1     3.66
  maji12           RECT_CLOSED          1.98     3.05     0.43     1.54        1     2.43
  maji12-1         RECT_CLOSED          1.42     2.41     0.39     1.70        1     1.58
  maji13           RECT_CLOSED          1.98     3.05     0.43     1.54        1     7.15
  maji13-1         RECT_CLOSED          1.98     3.05     0.43     1.54        1     7.35
  maji14           RECT_CLOSED          1.65     5.31     0.55     3.22        1    13.49
  maji14-1         RECT_CLOSED          1.98     3.05     0.43     1.54        1     7.14
  maji15           RECT_CLOSED          1.85     6.73     0.61     3.64        1    13.22
  maji15-1         RECT_CLOSED          1.85     6.73     0.61     3.64        1    13.86
  maji16           RECT_CLOSED          1.85     6.85     0.62     3.70        1     0.99
  maji17           RECT_CLOSED          1.78     6.48     0.60     3.64        1     7.30
  maji18           RECT_CLOSED          1.77    11.15     0.69     6.30        1    47.13
  maji19           RECT_CLOSED          1.20     4.08     0.44     3.40        1    12.10
  maji19-1         RECT_CLOSED          1.20     4.08     0.44     3.40        1    12.13
  maji20           RECT_CLOSED          1.20     4.08     0.44     3.40        1     4.86
  maji20-1         RECT_CLOSED          1.20     4.08     0.44     3.40        1     2.22
  maji21           RECT_CLOSED          1.57     5.70     0.55     3.63        1    21.17
  maji22           RECT_CLOSED          1.78     6.48     0.60     3.64        1     9.99
  maji23           RECT_CLOSED          1.86     7.14     0.63     3.84        1     9.91
  maji24           RECT_CLOSED          1.23     4.28     0.45     3.48        1     6.52
  maji25           RECT_CLOSED          1.23     4.28     0.45     3.48        1     6.45
  maji26           RECT_CLOSED          1.51     5.10     0.52     3.38        1    15.41
  maji27           RECT_CLOSED          1.51     5.10     0.52     3.38        1    19.25
  maji28           RECT_CLOSED          1.51     5.10     0.52     3.38        1    19.21
  maji29           RECT_CLOSED          1.51     5.10     0.52     3.38        1    19.39
  maji30           CIRCULAR             2.40     4.52     0.60     2.40        1    15.39
  maji31           CIRCULAR             2.40     4.52     0.60     2.40        1    15.66
  maji31-1         CIRCULAR             2.40     4.52     0.60     2.40        1    15.63
  maji32           RECT_CLOSED          2.60     6.76     0.65     2.60        1    13.99
  maji33           RECT_CLOSED          2.60     6.76     0.65     2.60        1    14.11
  maji34           RECT_CLOSED          2.60     6.76     0.65     2.60        1    14.01
  maji35           RECT_CLOSED          1.51     5.10     0.52     3.38        1    19.37
  maji35-1         RECT_CLOSED          1.61     5.78     0.56     3.59        1    17.43
  maji36           RECT_CLOSED          1.51     4.32     0.49     2.86        1     3.19
  maji37           RECT_CLOSED          1.51     4.32     0.49     2.86        1     5.28
  maji38           RECT_CLOSED          1.51     4.32     0.49     2.86        1     4.17
  maji39           RECT_CLOSED          1.51     4.32     0.49     2.86        1    15.15
  maji40           RECT_CLOSED          1.51     4.32     0.49     2.86        1     3.17
  maji41           CIRCULAR             1.00     0.79     0.25     1.00        1     2.40
  maji41-1         CIRCULAR             1.00     0.79     0.25     1.00        1     2.40
  maji42           CIRCULAR             1.65     2.14     0.41     1.65        1     2.88
  maji43           CIRCULAR             1.65     2.14     0.41     1.65        1     2.90
  maji46           RECT_CLOSED          1.51     4.32     0.49     2.86        1     9.14
  maji46-1         RECT_CLOSED          1.51     4.32     0.49     2.86        1    28.96
  maji46-2         RECT_CLOSED          1.51     4.32     0.49     2.86        1     7.59
  maji47           RECT_CLOSED          1.51     4.32     0.49     2.86        1    10.05
  maji48           RECT_CLOSED          1.51     4.32     0.49     2.86        1     8.92
  maji49           RECT_CLOSED          1.51     4.30     0.49     2.85        1     6.88
  maji5            RECT_CLOSED          1.42     2.41     0.39     1.70        1     2.32
  maji50           RECT_CLOSED          1.51     4.30     0.49     2.85        1    23.11
  maji51           RECT_CLOSED          1.51     4.32     0.49     2.86        1    22.32
  maji52           RECT_CLOSED          1.81     5.85     0.58     3.23        1    37.10
  maji53           RECT_CLOSED          1.80     4.50     0.52     2.50        1     6.63
  maji54           RECT_CLOSED          1.86     4.50     0.53     2.42        1    11.10
  maji6            RECT_CLOSED          1.42     2.41     0.39     1.70        1     2.79
  maji7            RECT_CLOSED          1.42     2.41     0.39     1.70        1     6.99
  maji8            RECT_CLOSED          1.42     2.41     0.39     1.70        1     2.56
  maji9            RECT_CLOSED          1.42     2.41     0.39     1.70        1     7.00
  out101           CIRCULAR             0.25     0.05     0.06     0.25        1     0.07
  out102           CIRCULAR             0.25     0.05     0.06     0.25        1     0.01
  out103           CIRCULAR             0.25     0.05     0.06     0.25        1     0.10
  out104           CIRCULAR             0.35     0.10     0.09     0.35        1     0.08
  out105           CIRCULAR             0.40     0.13     0.10     0.40        1     0.37
  out106           CIRCULAR             0.40     0.13     0.10     0.40        1     0.16
  out108           CIRCULAR             0.24     0.05     0.06     0.24        1     0.07
  out109           CIRCULAR             0.76     0.45     0.19     0.76        1     0.99
  out110           CIRCULAR             0.30     0.07     0.07     0.30        1     0.22
  out111           CIRCULAR             0.23     0.04     0.06     0.23        1     0.06
  out112           CIRCULAR             0.25     0.05     0.06     0.25        1     0.05
  out113           CIRCULAR             0.76     0.45     0.19     0.76        1     1.01
  out115           CIRCULAR             1.00     0.79     0.25     1.00        1     0.04
  out116           CIRCULAR             0.25     0.05     0.06     0.25        1     0.06
  out117           CIRCULAR             0.30     0.07     0.07     0.30        1     0.12
  out120           CIRCULAR             0.25     0.05     0.06     0.25        1     0.05
  out121           CIRCULAR             0.25     0.05     0.06     0.25        1     0.05
  out122           CIRCULAR             0.30     0.07     0.07     0.30        1     0.08
  out123           CIRCULAR             0.35     0.10     0.09     0.35        1     0.12
  out124           CIRCULAR             0.25     0.05     0.06     0.25        1     0.05
  out125           CIRCULAR             0.40     0.13     0.10     0.40        1     0.16
  out13            CIRCULAR             0.30     0.07     0.07     0.30        1     0.18
  out14            CIRCULAR             0.70     0.38     0.17     0.70        1     0.62
  out15            CIRCULAR             0.30     0.07     0.07     0.30        1     0.10
  out16            CIRCULAR             0.30     0.07     0.07     0.30        1     0.11
  out20            CIRCULAR             0.50     0.20     0.12     0.50        1     0.02
  out24            CIRCULAR             0.90     0.64     0.23     0.90        1     0.81
  out24-1          CIRCULAR             0.90     0.64     0.23     0.90        1     0.81
  out25            CIRCULAR             0.90     0.64     0.23     0.90        1     0.63
  out26            CIRCULAR             0.90     0.64     0.23     0.90        1    17.43
  out27            CIRCULAR             0.25     0.05     0.06     0.25        1     0.09
  out28            CIRCULAR             0.23     0.04     0.06     0.23        1     0.03
  out29            CIRCULAR             0.30     0.07     0.07     0.30        1     0.09
  out29-1          CIRCULAR             0.30     0.07     0.07     0.30        1     0.09
  out30            CIRCULAR             0.25     0.05     0.06     0.25        1     0.06
  out31            CIRCULAR             0.40     0.13     0.10     0.40        1     0.15
  out32            CIRCULAR             0.45     0.16     0.11     0.45        1     0.19
  out33            CIRCULAR             0.45     0.16     0.11     0.45        1     0.20
  out34            CIRCULAR             0.45     0.16     0.11     0.45        1     0.19
  out35            CIRCULAR             0.45     0.16     0.11     0.45        1     0.19
  out36            CIRCULAR             0.45     0.16     0.11     0.45        1     0.19
  out37            CIRCULAR             0.25     0.05     0.06     0.25        1     0.05
  out38            CIRCULAR             0.35     0.10     0.09     0.35        1     0.12
  out39            CIRCULAR             0.35     0.10     0.09     0.35        1     0.12
  out40            CIRCULAR             0.40     0.13     0.10     0.40        1     0.16
  out41            CIRCULAR             0.40     0.13     0.10     0.40        1     0.16
  out42            CIRCULAR             0.45     0.16     0.11     0.45        1     0.20
  out8             CIRCULAR             0.52     0.21     0.13     0.52        1     0.84
  out9             CIRCULAR             0.70     0.38     0.17     0.70        1     0.72
  sino1            CIRCULAR             4.00    12.57     1.00     4.00        1    30.78
  sino1-1          CIRCULAR             4.00    12.57     1.00     4.00        1    30.15
  sino2            CIRCULAR             4.00    12.57     1.00     4.00        1    30.59
  sino3            CIRCULAR             4.00    12.57     1.00     4.00        1    22.98
  sino4            CIRCULAR             4.00    12.57     1.00     4.00        1    67.55
  sino5-1          CIRCULAR             4.00    12.57     1.00     4.00        1   115.31
  sino5-1-1        CIRCULAR             0.30     0.07     0.07     0.30        1     0.03
  sino5-1-2        CIRCULAR             0.30     0.07     0.07     0.30        1     0.03
  sino5-2          CIRCULAR             4.00    12.57     1.00     4.00        1   105.11
  sino5-2-1        CIRCULAR             0.30     0.07     0.07     0.30        1     0.03
  sino5-2-2        CIRCULAR             0.30     0.07     0.07     0.30        1     0.03
  sino5-3          CIRCULAR             4.00    12.57     1.00     4.00        1   105.28
  sino5-3-1        CIRCULAR             0.30     0.07     0.07     0.30        1     0.03
  sino5-3-2        CIRCULAR             0.30     0.07     0.07     0.30        1     0.03
  sino5-4          CIRCULAR             4.00    12.57     1.00     4.00        1   105.50
  sino5-4-1        CIRCULAR             0.30     0.07     0.07     0.30        1     0.03
  sino5-4-2        CIRCULAR             0.30     0.07     0.07     0.30        1     0.03
  zai1             CIRCULAR             0.25     0.05     0.06     0.25        1     0.04
  13448.1          CIRCULAR             0.05     0.00     0.01     0.05        1     0.00
  1071             CIRCULAR             0.25     0.05     0.06     0.25        1     0.29
  1156             RECT_CLOSED          1.06     1.61     0.31     1.52        1     0.17
  1229             RECT_CLOSED          1.10     1.67     0.32     1.52        1     4.76
  13458.1          CIRCULAR             0.05     0.00     0.01     0.05        1     0.00
  13460.1          CIRCULAR             0.05     0.00     0.01     0.05        1     0.01
  13463.1          CIRCULAR             0.05     0.00     0.01     0.05        1     0.00
  13465.1          CIRCULAR             0.05     0.00     0.01     0.05        1     0.00
  13467.1          CIRCULAR             0.05     0.00     0.01     0.05        1     0.00
  13469.1          CIRCULAR             0.05     0.00     0.01     0.05        1     0.00
  13471.1          CIRCULAR             0.05     0.00     0.01     0.05        1     0.00
  13482.1          CIRCULAR             0.05     0.00     0.01     0.05        1     0.00
  13487.1          CIRCULAR             0.05     0.00     0.01     0.05        1     0.00
  13489.1          CIRCULAR             0.05     0.00     0.01     0.05        1     0.00
  kurau1           CIRCULAR             0.05     0.00     0.01     0.05        1     0.00
  kuraout          CIRCULAR             6.25    30.68     1.56     6.25        1    17.55
  Link13550        CIRCULAR             4.00    12.57     1.00     4.00        1     0.38
  todai8seki       CIRCULAR             0.05     0.00     0.01     0.05        1     0.00
  563              CIRCULAR             0.50     0.20     0.12     0.50        1     0.32
  dai2asa.1        CIRCULAR             0.05     0.00     0.01     0.05        1     0.00
  tutumi.1         CIRCULAR             0.05     0.00     0.01     0.05        1     0.00
  4179-2           CIRCULAR             1.65     2.14     0.41     1.65        1     4.06
  Link13564        CIRCULAR             0.80     0.50     0.20     0.80        1     1.32
  RC640            CIRCULAR             1.20     1.13     0.30     1.20        1     1.83
  RC816            CIRCULAR             2.20     3.80     0.55     2.20        1     7.40
  RC803            CIRCULAR             1.50     1.77     0.38     1.50        1     3.00
  RC681            CIRCULAR             0.80     0.50     0.20     0.80        1     0.72
  RC682            CIRCULAR             0.80     0.50     0.20     0.80        1     0.72
  RC412            CIRCULAR             2.40     4.52     0.60     2.40        1     8.59
  RC293            CIRCULAR             1.10     0.95     0.28     1.10        1     1.58
  RC450            CIRCULAR             0.80     0.50     0.20     0.80        1     0.72
  RC654            CIRCULAR             0.90     0.64     0.23     0.90        1     0.96
  RC655            CIRCULAR             1.35     1.43     0.34     1.35        1     2.39
  RC653            CIRCULAR             0.90     0.64     0.23     0.90        1     0.96
  RC651            CIRCULAR             0.90     0.64     0.23     0.90        1     0.96
  RC652            CIRCULAR             0.80     0.50     0.20     0.80        1     0.72
  RC1-5            CIRCULAR             2.40     4.52     0.60     2.40        1     8.59
  RC16             CIRCULAR             2.80     6.16     0.70     2.80        1    11.95
  RC3-2            CIRCULAR             2.00     3.14     0.50     2.00        1     5.90
  RC3-1            CIRCULAR             2.00     3.14     0.50     2.00        1     5.90
  RC10-1           CIRCULAR             0.90     0.64     0.23     0.90        1     0.96
  RC10-2           CIRCULAR             1.20     1.13     0.30     1.20        1     1.83
  RC4              CIRCULAR             2.00     3.14     0.50     2.00        1     5.90
  RC13             CIRCULAR             1.50     1.77     0.38     1.50        1     2.98
  RC130            CIRCULAR             1.35     1.43     0.34     1.35        1     2.39
  RC4-1            CIRCULAR             1.10     0.95     0.28     1.10        1     1.51
  RC4-2            CIRCULAR             1.10     0.95     0.28     1.10        1     1.52
  RC510            CIRCULAR             2.40     4.52     0.60     2.40        1     8.58
  RC507            CIRCULAR             0.90     0.64     0.23     0.90        1     0.96
  RC506            CIRCULAR             2.00     3.14     0.50     2.00        1     5.90
  RC503            CIRCULAR             2.00     3.14     0.50     2.00        1     5.90
  RC502            CIRCULAR             0.90     0.64     0.23     0.90        1     0.96
  RC501            CIRCULAR             0.90     0.64     0.23     0.90        1     0.96
  RC505            CIRCULAR             1.00     0.79     0.25     1.00        1     1.20
  RC504            CIRCULAR             1.10     0.95     0.28     1.10        1     1.48
  RC509            CIRCULAR             1.00     0.79     0.25     1.00        1     1.20
  RC508            CIRCULAR             1.20     1.13     0.30     1.20        1     1.83
  RC613            CIRCULAR             0.90     0.64     0.23     0.90        1     0.96
  RC612            CIRCULAR             0.80     0.50     0.20     0.80        1     0.72
  RC610            CIRCULAR             0.80     0.50     0.20     0.80        1     0.78
  RC607            CIRCULAR             0.80     0.50     0.20     0.80        1     0.72
  RC608            CIRCULAR             0.90     0.64     0.23     0.90        1     0.96
  RC609            CIRCULAR             1.00     0.79     0.25     1.00        1     1.20
  RC606            CIRCULAR             2.00     3.14     0.50     2.00        1     5.90
  RC605            CIRCULAR             0.90     0.64     0.23     0.90        1     0.96
  RC604            CIRCULAR             0.80     0.50     0.20     0.80        1     0.72
  RC603            CIRCULAR             2.00     3.14     0.50     2.00        1     5.90
  RC601            CIRCULAR             2.00     3.14     0.50     2.00        1     5.90
  RC602            CIRCULAR             0.80     0.50     0.20     0.80        1     0.72
  4908+            CIRCULAR             4.75    17.72     1.19     4.75        1    41.02
  RCjizou          CIRCULAR             0.60     0.28     0.15     0.60        1     0.39
  RC891-1          CIRCULAR             0.60     0.28     0.15     0.60        1     0.40
  543-1            CIRCULAR             1.35     1.43     0.34     1.35        1     2.37
  
  
  ****************
  Analysis Options
  ****************
  Flow Units ............... CMS
  Process Models:
    Rainfall/Runoff ........ YES
    RDII ................... NO
    Snowmelt ............... NO
    Groundwater ............ NO
    Flow Routing ........... YES
    Ponding Allowed ........ NO
    Water Quality .......... NO
  Infiltration Method ...... HORTON
  Flow Routing Method ...... DYNWAVE
  Surcharge Method ......... EXTRAN
  Starting Date ............ 01/01/2011 00:00:00
  Ending Date .............. 01/01/2011 07:00:00
  Antecedent Dry Days ...... 0.0
  Report Time Step ......... 00:01:00
  Wet Time Step ............ 00:01:00
  Dry Time Step ............ 00:00:00
  Routing Time Step ........ 10.00 sec
  Variable Time Step ....... YES
  Maximum Trials ........... 8
  Number of Threads ........ 1
  Head Tolerance ........... 0.001524 m
  
  
  ERROR 141: Outfall 162212907 has more than 1 inlet link or an outlet link.
  
  ERROR 141: Outfall Node13008 has more than 1 inlet link or an outlet link.

  Analysis begun on:  Wed Jun 24 14:58:29 2026
  Analysis ended on:  Wed Jun 24 14:58:29 2026
  Total elapsed time: < 1 sec