
  EPA STORM WATER MANAGEMENT MODEL - VERSION 5.2 (Build 5.2.4)
  ------------------------------------------------------------

  PLEASE READ PRIOR TO ANY USE OF THE SEWER SYSTEM REPRESENATATION IN THE MODEL INPUT BELOW 
  1. The DPW sewer model representations in the input below reflect the existing conditions as of December, 2007. 
  2. DPW is in the process of developing a model management plan.  This plan includes standard procedure for model distribution, future model updates/revisions, and model applications to support design projects.  Before the model management strategic plan is finalized, the existing sewer model should be for DPW internal use only. 
  WARNING 04: minimum elevation drop used for Conduit 1_1
  WARNING 04: minimum elevation drop used for Conduit 2_2
  WARNING 04: minimum elevation drop used for Conduit 3
  WARNING 04: minimum elevation drop used for Conduit 4
  WARNING 04: minimum elevation drop used for Conduit 5_5
  WARNING 04: minimum elevation drop used for Conduit 6_6
  WARNING 04: minimum elevation drop used for Conduit 7
  WARNING 04: minimum elevation drop used for Conduit 8a
  WARNING 04: minimum elevation drop used for Conduit 9
  WARNING 04: minimum elevation drop used for Conduit 10
  WARNING 04: minimum elevation drop used for Conduit 11
  WARNING 04: minimum elevation drop used for Conduit 12
  WARNING 04: minimum elevation drop used for Conduit 13
  WARNING 04: minimum elevation drop used for Conduit 14
  WARNING 04: minimum elevation drop used for Conduit 15
  WARNING 04: minimum elevation drop used for Conduit 16
  WARNING 04: minimum elevation drop used for Conduit 17
  WARNING 04: minimum elevation drop used for Conduit 18
  WARNING 04: minimum elevation drop used for Conduit 19
  WARNING 04: minimum elevation drop used for Conduit 20
  WARNING 04: minimum elevation drop used for Conduit 21_21
  WARNING 04: minimum elevation drop used for Conduit 22
  WARNING 04: minimum elevation drop used for Conduit 23
  WARNING 04: minimum elevation drop used for Conduit 24
  WARNING 04: minimum elevation drop used for Conduit 25_25
  WARNING 04: minimum elevation drop used for Conduit 26_26
  WARNING 04: minimum elevation drop used for Conduit 27_27
  WARNING 04: minimum elevation drop used for Conduit 28
  WARNING 04: minimum elevation drop used for Conduit 29
  WARNING 04: minimum elevation drop used for Conduit 30
  WARNING 04: minimum elevation drop used for Conduit 31
  WARNING 04: minimum elevation drop used for Conduit 32
  WARNING 04: minimum elevation drop used for Conduit 33
  WARNING 04: minimum elevation drop used for Conduit 34
  WARNING 04: minimum elevation drop used for Conduit 35
  WARNING 04: minimum elevation drop used for Conduit 36
  WARNING 04: minimum elevation drop used for Conduit 37
  WARNING 04: minimum elevation drop used for Conduit 38
  WARNING 04: minimum elevation drop used for Conduit 39
  WARNING 04: minimum elevation drop used for Conduit 40
  WARNING 04: minimum elevation drop used for Conduit 41
  WARNING 04: minimum elevation drop used for Conduit 42
  WARNING 04: minimum elevation drop used for Conduit 43
  WARNING 04: minimum elevation drop used for Conduit 44
  WARNING 04: minimum elevation drop used for Conduit 233
  WARNING 04: minimum elevation drop used for Conduit 118824_115155
  WARNING 04: minimum elevation drop used for Conduit 150036_154299
  WARNING 04: minimum elevation drop used for Conduit 190061_190161
  WARNING 08: elevation drop exceeds length for Conduit 190096_692161
  WARNING 04: minimum elevation drop used for Conduit 190171_191064
  WARNING 04: minimum elevation drop used for Conduit 221909_221662
  WARNING 04: minimum elevation drop used for Conduit 228207_228208
  WARNING 08: elevation drop exceeds length for Conduit 232955_235187
  WARNING 04: minimum elevation drop used for Conduit 250047_251967
  WARNING 04: minimum elevation drop used for Conduit 680149_685198
  WARNING 04: minimum elevation drop used for Conduit 685363_689482
  WARNING 04: minimum elevation drop used for Conduit 689743A_689743B
  WARNING 04: minimum elevation drop used for Conduit 692149_692150
  WARNING 04: minimum elevation drop used for Conduit 697501_697500
  WARNING 04: minimum elevation drop used for Conduit 911303a_911302
  WARNING 04: minimum elevation drop used for Conduit 951500_951499
  WARNING 04: minimum elevation drop used for Conduit CSOout_cso039
  WARNING 04: minimum elevation drop used for Conduit ORIFICE41@190159-190120
  WARNING 04: minimum elevation drop used for Conduit 810323-812129
  WARNING 04: minimum elevation drop used for Conduit 830060-830059
  WARNING 04: minimum elevation drop used for Conduit 130098-130097
  WARNING 04: minimum elevation drop used for Conduit 130027-130026
  WARNING 08: elevation drop exceeds length for Conduit DC1-LS101
  WARNING 04: minimum elevation drop used for Conduit 610111A_610112
  WARNING 04: minimum elevation drop used for Conduit 730022A-730021A
  WARNING 04: minimum elevation drop used for Conduit 730022B-730021B
  WARNING 04: minimum elevation drop used for Conduit DS-10-DS-11
  WARNING 02: maximum depth increased for Node 218180
  WARNING 02: maximum depth increased for Node 218181
  WARNING 02: maximum depth increased for Node 310100
  WARNING 02: maximum depth increased for Node 310127
  WARNING 02: maximum depth increased for Node 313875
  WARNING 02: maximum depth increased for Node 316394
  WARNING 02: maximum depth increased for Node 316793
  WARNING 02: maximum depth increased for Node 318410
  WARNING 02: maximum depth increased for Node 322200
  WARNING 02: maximum depth increased for Node 322202
  WARNING 02: maximum depth increased for Node 324221A
  WARNING 02: maximum depth increased for Node 613894
  WARNING 02: maximum depth increased for Node 924154
  WARNING 02: maximum depth increased for Node 924159
  
  ****************
  Analysis Options
  ****************
  Flow Units ............... MGD
  Process Models:
    Rainfall/Runoff ........ YES
    RDII ................... YES
    Snowmelt ............... NO
    Groundwater ............ NO
    Flow Routing ........... YES
    Ponding Allowed ........ NO
    Water Quality .......... NO
  Infiltration Method ...... GREEN_AMPT
  Flow Routing Method ...... DYNWAVE
  Surcharge Method ......... EXTRAN
  Starting Date ............ 01/01/1996 00:00:00
  Ending Date .............. 01/10/1996 00:00:00
  Antecedent Dry Days ...... 0.0
  Report Time Step ......... 01:00:00
  Wet Time Step ............ 00:05:00
  Dry Time Step ............ 01:00:00
  Routing Time Step ........ 30.00 sec
  Variable Time Step ....... YES
  Maximum Trials ........... 8
  Number of Threads ........ 1
  Head Tolerance ........... 0.005000 ft
  
  
  **********************           Volume        Volume
  Rainfall Dependent I/I        acre-feet      10^6 gal
  **********************        ---------     ---------
  Sewershed Rainfall ......       511.762       166.765
  RDII Produced ...........        25.389         8.273
  RDII Ratio ..............         0.050
  
  
  ERROR 331: cannot open hot start interface file D:\2016PC\Desktop\jan2010\July96-fullupdate.HSF.

  Analysis begun on:  Wed Jun 24 14:58:29 2026
  Analysis ended on:  Wed Jun 24 14:58:30 2026
  Total elapsed time: 00:00:01