
  EPA STORM WATER MANAGEMENT MODEL - VERSION 5.2 (Build 5.2.4)
  ------------------------------------------------------------

  
  ERROR 209: undefined object 182243701_TS at line 21475 of [OUTFALL] section:
  182243701        0.194      TIMESERIES 182243701_TS     NO                       

  
  ERROR 209: undefined object 192033747_TS at line 21476 of [OUTFALL] section:
  192033747        -0.45      TIMESERIES 192033747_TS     NO                       

  
  ERROR 209: undefined object 192131723_TS at line 21477 of [OUTFALL] section:
  192131723        -0.761     TIMESERIES 192131723_TS     NO                       

  
  ERROR 209: undefined object 192132726_TS at line 21478 of [OUTFALL] section:
  192132726        -0.756     TIMESERIES 192132726_TS     NO                       

  
  ERROR 209: undefined object 192133709_TS at line 21479 of [OUTFALL] section:
  192133709        -0.24      TIMESERIES 192133709_TS     NO                       

  
  ERROR 209: undefined object 192134734_TS at line 21480 of [OUTFALL] section:
  192134734        0.13       TIMESERIES 192134734_TS     NO                       

  
  ERROR 209: undefined object 192212703_TS at line 21481 of [OUTFALL] section:
  192212703        -2.053     TIMESERIES 192212703_TS     NO                       

  
  ERROR 209: undefined object 192222702_TS at line 21482 of [OUTFALL] section:
  192222702        -0.055     TIMESERIES 192222702_TS     NO                       

  
  ERROR 209: undefined object 181944701_TS at line 21485 of [OUTFALL] section:
  181944701        0.24       TIMESERIES 181944701_TS     NO                       

  
  ERROR 209: undefined object 181944702_TS at line 21486 of [OUTFALL] section:
  181944702        -0.451     TIMESERIES 181944702_TS     NO                       

  
  ERROR 209: undefined object 192012747_TS at line 21487 of [OUTFALL] section:
  192012747        -0.15      TIMESERIES 192012747_TS     NO                       


  Analysis begun on:  Wed Jun 24 14:58:30 2026
  Analysis ended on:  Wed Jun 24 14:58:30 2026
  Total elapsed time: < 1 sec