
  EPA STORM WATER MANAGEMENT MODEL - VERSION 5.2 (Build 5.2.4)
  ------------------------------------------------------------

  WARNING 04: minimum elevation drop used for Conduit 104
  WARNING 04: minimum elevation drop used for Conduit 11
  WARNING 04: minimum elevation drop used for Conduit 114
  WARNING 04: minimum elevation drop used for Conduit 119
  WARNING 04: minimum elevation drop used for Conduit 120
  WARNING 04: minimum elevation drop used for Conduit 121
  WARNING 04: minimum elevation drop used for Conduit 123
  WARNING 04: minimum elevation drop used for Conduit 127
  WARNING 04: minimum elevation drop used for Conduit 14
  WARNING 04: minimum elevation drop used for Conduit 14-2FM
  WARNING 04: minimum elevation drop used for Conduit 142
  WARNING 04: minimum elevation drop used for Conduit 1448
  WARNING 04: minimum elevation drop used for Conduit 1454
  WARNING 04: minimum elevation drop used for Conduit 1461
  WARNING 04: minimum elevation drop used for Conduit 1470
  WARNING 04: minimum elevation drop used for Conduit 1472
  WARNING 04: minimum elevation drop used for Conduit 152
  WARNING 04: minimum elevation drop used for Conduit 153
  WARNING 04: minimum elevation drop used for Conduit 156
  WARNING 04: minimum elevation drop used for Conduit 159
  WARNING 04: minimum elevation drop used for Conduit 161
  WARNING 04: minimum elevation drop used for Conduit 1611
  WARNING 04: minimum elevation drop used for Conduit 1612
  WARNING 04: minimum elevation drop used for Conduit 1617
  WARNING 04: minimum elevation drop used for Conduit 1619
  WARNING 04: minimum elevation drop used for Conduit 162
  WARNING 04: minimum elevation drop used for Conduit 1620
  WARNING 04: minimum elevation drop used for Conduit 1623
  WARNING 04: minimum elevation drop used for Conduit 17
  WARNING 04: minimum elevation drop used for Conduit 176
  WARNING 04: minimum elevation drop used for Conduit 1788
  WARNING 04: minimum elevation drop used for Conduit 18
  WARNING 04: minimum elevation drop used for Conduit 1805
  WARNING 04: minimum elevation drop used for Conduit 181
  WARNING 04: minimum elevation drop used for Conduit 1815
  WARNING 04: minimum elevation drop used for Conduit 1829
  WARNING 04: minimum elevation drop used for Conduit 1891
  WARNING 04: minimum elevation drop used for Conduit 19
  WARNING 04: minimum elevation drop used for Conduit 1904
  WARNING 04: minimum elevation drop used for Conduit 1905
  WARNING 04: minimum elevation drop used for Conduit 1910
  WARNING 04: minimum elevation drop used for Conduit 1914
  WARNING 04: minimum elevation drop used for Conduit 1915
  WARNING 04: minimum elevation drop used for Conduit 1918
  WARNING 04: minimum elevation drop used for Conduit 1919
  WARNING 04: minimum elevation drop used for Conduit 192
  WARNING 04: minimum elevation drop used for Conduit 1920
  WARNING 04: minimum elevation drop used for Conduit 1921
  WARNING 04: minimum elevation drop used for Conduit 1923
  WARNING 04: minimum elevation drop used for Conduit 1924
  WARNING 04: minimum elevation drop used for Conduit 1925
  WARNING 04: minimum elevation drop used for Conduit 1926
  WARNING 04: minimum elevation drop used for Conduit 1930
  WARNING 04: minimum elevation drop used for Conduit 1931
  WARNING 04: minimum elevation drop used for Conduit 1934
  WARNING 04: minimum elevation drop used for Conduit 1935
  WARNING 04: minimum elevation drop used for Conduit 1937
  WARNING 04: minimum elevation drop used for Conduit 1938
  WARNING 04: minimum elevation drop used for Conduit 1939
  WARNING 04: minimum elevation drop used for Conduit 1940
  WARNING 04: minimum elevation drop used for Conduit 1941
  WARNING 04: minimum elevation drop used for Conduit 1942
  WARNING 04: minimum elevation drop used for Conduit 1945
  WARNING 04: minimum elevation drop used for Conduit 1946
  WARNING 04: minimum elevation drop used for Conduit 1947
  WARNING 04: minimum elevation drop used for Conduit 1948
  WARNING 04: minimum elevation drop used for Conduit 1950
  WARNING 04: minimum elevation drop used for Conduit 1951
  WARNING 04: minimum elevation drop used for Conduit 1952
  WARNING 04: minimum elevation drop used for Conduit 1954
  WARNING 04: minimum elevation drop used for Conduit 1956
  WARNING 04: minimum elevation drop used for Conduit 1957
  WARNING 04: minimum elevation drop used for Conduit 1958
  WARNING 04: minimum elevation drop used for Conduit 1959
  WARNING 04: minimum elevation drop used for Conduit 1960
  WARNING 04: minimum elevation drop used for Conduit 1963
  WARNING 04: minimum elevation drop used for Conduit 1964
  WARNING 04: minimum elevation drop used for Conduit 1965
  WARNING 04: minimum elevation drop used for Conduit 1967
  WARNING 04: minimum elevation drop used for Conduit 1968
  WARNING 04: minimum elevation drop used for Conduit 1969
  WARNING 04: minimum elevation drop used for Conduit 1970
  WARNING 04: minimum elevation drop used for Conduit 1971
  WARNING 04: minimum elevation drop used for Conduit 1974
  WARNING 04: minimum elevation drop used for Conduit 1975
  WARNING 04: minimum elevation drop used for Conduit 1976
  WARNING 04: minimum elevation drop used for Conduit 1977
  WARNING 04: minimum elevation drop used for Conduit 1978
  WARNING 04: minimum elevation drop used for Conduit 1980
  WARNING 04: minimum elevation drop used for Conduit 1982
  WARNING 04: minimum elevation drop used for Conduit 1983
  WARNING 04: minimum elevation drop used for Conduit 1984
  WARNING 04: minimum elevation drop used for Conduit 1985
  WARNING 04: minimum elevation drop used for Conduit 1986
  WARNING 04: minimum elevation drop used for Conduit 1987
  WARNING 04: minimum elevation drop used for Conduit 1988
  WARNING 04: minimum elevation drop used for Conduit 1990
  WARNING 04: minimum elevation drop used for Conduit 1991
  WARNING 04: minimum elevation drop used for Conduit 1992
  WARNING 04: minimum elevation drop used for Conduit 1993
  WARNING 04: minimum elevation drop used for Conduit 1994
  WARNING 04: minimum elevation drop used for Conduit 1995
  WARNING 04: minimum elevation drop used for Conduit 1996
  WARNING 04: minimum elevation drop used for Conduit 1997
  WARNING 04: minimum elevation drop used for Conduit 1998
  WARNING 04: minimum elevation drop used for Conduit 1999
  WARNING 04: minimum elevation drop used for Conduit 20
  WARNING 04: minimum elevation drop used for Conduit 2000
  WARNING 04: minimum elevation drop used for Conduit 2001
  WARNING 04: minimum elevation drop used for Conduit 2003
  WARNING 04: minimum elevation drop used for Conduit 2004
  WARNING 04: minimum elevation drop used for Conduit 2005
  WARNING 04: minimum elevation drop used for Conduit 2007
  WARNING 04: minimum elevation drop used for Conduit 2008
  WARNING 04: minimum elevation drop used for Conduit 2010
  WARNING 04: minimum elevation drop used for Conduit 2011
  WARNING 04: minimum elevation drop used for Conduit 2015
  WARNING 04: minimum elevation drop used for Conduit 202
  WARNING 04: minimum elevation drop used for Conduit 2020
  WARNING 04: minimum elevation drop used for Conduit 2021
  WARNING 04: minimum elevation drop used for Conduit 2022
  WARNING 04: minimum elevation drop used for Conduit 2023
  WARNING 04: minimum elevation drop used for Conduit 2024
  WARNING 04: minimum elevation drop used for Conduit 2026
  WARNING 04: minimum elevation drop used for Conduit 2027
  WARNING 04: minimum elevation drop used for Conduit 2028
  WARNING 04: minimum elevation drop used for Conduit 2029
  WARNING 04: minimum elevation drop used for Conduit 203
  WARNING 04: minimum elevation drop used for Conduit 2030
  WARNING 04: minimum elevation drop used for Conduit 2031
  WARNING 04: minimum elevation drop used for Conduit 2032
  WARNING 04: minimum elevation drop used for Conduit 2033
  WARNING 04: minimum elevation drop used for Conduit 2034
  WARNING 04: minimum elevation drop used for Conduit 2035
  WARNING 04: minimum elevation drop used for Conduit 2036
  WARNING 04: minimum elevation drop used for Conduit 2037
  WARNING 04: minimum elevation drop used for Conduit 2038
  WARNING 04: minimum elevation drop used for Conduit 2039
  WARNING 04: minimum elevation drop used for Conduit 2040
  WARNING 04: minimum elevation drop used for Conduit 2041
  WARNING 04: minimum elevation drop used for Conduit 2042
  WARNING 04: minimum elevation drop used for Conduit 2043
  WARNING 04: minimum elevation drop used for Conduit 2044
  WARNING 04: minimum elevation drop used for Conduit 2045
  WARNING 04: minimum elevation drop used for Conduit 2046
  WARNING 04: minimum elevation drop used for Conduit 2047
  WARNING 04: minimum elevation drop used for Conduit 2048
  WARNING 04: minimum elevation drop used for Conduit 2049
  WARNING 04: minimum elevation drop used for Conduit 2050
  WARNING 04: minimum elevation drop used for Conduit 2051
  WARNING 04: minimum elevation drop used for Conduit 2052
  WARNING 04: minimum elevation drop used for Conduit 2054
  WARNING 04: minimum elevation drop used for Conduit 2055
  WARNING 04: minimum elevation drop used for Conduit 2056
  WARNING 04: minimum elevation drop used for Conduit 2058
  WARNING 04: minimum elevation drop used for Conduit 2059
  WARNING 04: minimum elevation drop used for Conduit 2060
  WARNING 04: minimum elevation drop used for Conduit 2061
  WARNING 04: minimum elevation drop used for Conduit 2063
  WARNING 04: minimum elevation drop used for Conduit 2064
  WARNING 04: minimum elevation drop used for Conduit 2065
  WARNING 04: minimum elevation drop used for Conduit 2066
  WARNING 04: minimum elevation drop used for Conduit 2067
  WARNING 04: minimum elevation drop used for Conduit 2068
  WARNING 04: minimum elevation drop used for Conduit 2069
  WARNING 04: minimum elevation drop used for Conduit 2070
  WARNING 04: minimum elevation drop used for Conduit 2075
  WARNING 04: minimum elevation drop used for Conduit 2076
  WARNING 04: minimum elevation drop used for Conduit 2077
  WARNING 04: minimum elevation drop used for Conduit 2078
  WARNING 04: minimum elevation drop used for Conduit 2079
  WARNING 04: minimum elevation drop used for Conduit 2080
  WARNING 04: minimum elevation drop used for Conduit 2081
  WARNING 04: minimum elevation drop used for Conduit 2082
  WARNING 04: minimum elevation drop used for Conduit 2083
  WARNING 04: minimum elevation drop used for Conduit 2084
  WARNING 04: minimum elevation drop used for Conduit 2085
  WARNING 04: minimum elevation drop used for Conduit 2086
  WARNING 04: minimum elevation drop used for Conduit 2087
  WARNING 04: minimum elevation drop used for Conduit 2088
  WARNING 04: minimum elevation drop used for Conduit 2091
  WARNING 04: minimum elevation drop used for Conduit 2092
  WARNING 04: minimum elevation drop used for Conduit 2093
  WARNING 04: minimum elevation drop used for Conduit 2094
  WARNING 04: minimum elevation drop used for Conduit 2095
  WARNING 04: minimum elevation drop used for Conduit 2096
  WARNING 04: minimum elevation drop used for Conduit 2097
  WARNING 04: minimum elevation drop used for Conduit 2098
  WARNING 04: minimum elevation drop used for Conduit 2099
  WARNING 04: minimum elevation drop used for Conduit 21
  WARNING 04: minimum elevation drop used for Conduit 2100
  WARNING 04: minimum elevation drop used for Conduit 2101
  WARNING 04: minimum elevation drop used for Conduit 2102
  WARNING 04: minimum elevation drop used for Conduit 2103
  WARNING 04: minimum elevation drop used for Conduit 2104
  WARNING 04: minimum elevation drop used for Conduit 2105
  WARNING 04: minimum elevation drop used for Conduit 2106
  WARNING 04: minimum elevation drop used for Conduit 2110
  WARNING 04: minimum elevation drop used for Conduit 2111
  WARNING 04: minimum elevation drop used for Conduit 2112
  WARNING 04: minimum elevation drop used for Conduit 2113
  WARNING 04: minimum elevation drop used for Conduit 2114
  WARNING 04: minimum elevation drop used for Conduit 2115
  WARNING 04: minimum elevation drop used for Conduit 2117
  WARNING 04: minimum elevation drop used for Conduit 2118
  WARNING 04: minimum elevation drop used for Conduit 2120
  WARNING 04: minimum elevation drop used for Conduit 2121
  WARNING 04: minimum elevation drop used for Conduit 2122
  WARNING 04: minimum elevation drop used for Conduit 2123
  WARNING 04: minimum elevation drop used for Conduit 2124
  WARNING 04: minimum elevation drop used for Conduit 2125
  WARNING 04: minimum elevation drop used for Conduit 2126
  WARNING 04: minimum elevation drop used for Conduit 2127
  WARNING 04: minimum elevation drop used for Conduit 2129
  WARNING 04: minimum elevation drop used for Conduit 2130
  WARNING 04: minimum elevation drop used for Conduit 2131
  WARNING 04: minimum elevation drop used for Conduit 2132
  WARNING 04: minimum elevation drop used for Conduit 2133
  WARNING 04: minimum elevation drop used for Conduit 2134
  WARNING 04: minimum elevation drop used for Conduit 2135
  WARNING 04: minimum elevation drop used for Conduit 2136
  WARNING 04: minimum elevation drop used for Conduit 2137
  WARNING 04: minimum elevation drop used for Conduit 2138
  WARNING 04: minimum elevation drop used for Conduit 2139
  WARNING 04: minimum elevation drop used for Conduit 2140
  WARNING 04: minimum elevation drop used for Conduit 2141
  WARNING 04: minimum elevation drop used for Conduit 2142
  WARNING 04: minimum elevation drop used for Conduit 2146
  WARNING 04: minimum elevation drop used for Conduit 2147
  WARNING 04: minimum elevation drop used for Conduit 2149
  WARNING 04: minimum elevation drop used for Conduit 2150
  WARNING 04: minimum elevation drop used for Conduit 2151
  WARNING 04: minimum elevation drop used for Conduit 2152
  WARNING 04: minimum elevation drop used for Conduit 2155
  WARNING 04: minimum elevation drop used for Conduit 2157
  WARNING 04: minimum elevation drop used for Conduit 2159
  WARNING 04: minimum elevation drop used for Conduit 2160
  WARNING 04: minimum elevation drop used for Conduit 2162
  WARNING 04: minimum elevation drop used for Conduit 2163
  WARNING 04: minimum elevation drop used for Conduit 2164
  WARNING 04: minimum elevation drop used for Conduit 2165
  WARNING 04: minimum elevation drop used for Conduit 2166
  WARNING 04: minimum elevation drop used for Conduit 2167
  WARNING 04: minimum elevation drop used for Conduit 2168
  WARNING 04: minimum elevation drop used for Conduit 2169
  WARNING 04: minimum elevation drop used for Conduit 2170
  WARNING 04: minimum elevation drop used for Conduit 2171
  WARNING 04: minimum elevation drop used for Conduit 2172
  WARNING 04: minimum elevation drop used for Conduit 2173
  WARNING 04: minimum elevation drop used for Conduit 2174
  WARNING 04: minimum elevation drop used for Conduit 2175
  WARNING 04: minimum elevation drop used for Conduit 2176
  WARNING 04: minimum elevation drop used for Conduit 2177
  WARNING 04: minimum elevation drop used for Conduit 2178
  WARNING 04: minimum elevation drop used for Conduit 2180
  WARNING 04: minimum elevation drop used for Conduit 2181
  WARNING 04: minimum elevation drop used for Conduit 2183
  WARNING 04: minimum elevation drop used for Conduit 2184
  WARNING 04: minimum elevation drop used for Conduit 2185
  WARNING 04: minimum elevation drop used for Conduit 2187
  WARNING 04: minimum elevation drop used for Conduit 2188
  WARNING 04: minimum elevation drop used for Conduit 2189
  WARNING 04: minimum elevation drop used for Conduit 2190
  WARNING 04: minimum elevation drop used for Conduit 2192
  WARNING 04: minimum elevation drop used for Conduit 2193
  WARNING 04: minimum elevation drop used for Conduit 2195
  WARNING 04: minimum elevation drop used for Conduit 2196
  WARNING 04: minimum elevation drop used for Conduit 2198
  WARNING 04: minimum elevation drop used for Conduit 2199
  WARNING 03: negative offset ignored for Link 2200
  WARNING 04: minimum elevation drop used for Conduit 2200
  WARNING 04: minimum elevation drop used for Conduit 2201
  WARNING 04: minimum elevation drop used for Conduit 2202
  WARNING 04: minimum elevation drop used for Conduit 2204
  WARNING 04: minimum elevation drop used for Conduit 2205
  WARNING 04: minimum elevation drop used for Conduit 2207
  WARNING 04: minimum elevation drop used for Conduit 2208
  WARNING 04: minimum elevation drop used for Conduit 2209
  WARNING 04: minimum elevation drop used for Conduit 2210
  WARNING 04: minimum elevation drop used for Conduit 2213
  WARNING 04: minimum elevation drop used for Conduit 2250
  WARNING 04: minimum elevation drop used for Conduit 2265
  WARNING 04: minimum elevation drop used for Conduit 23
  WARNING 03: negative offset ignored for Link 2319
  WARNING 03: negative offset ignored for Link 2320
  WARNING 03: negative offset ignored for Link 2335
  WARNING 03: negative offset ignored for Link 2336
  WARNING 03: negative offset ignored for Link 2342
  WARNING 03: negative offset ignored for Link 2358
  WARNING 04: minimum elevation drop used for Conduit 24
  WARNING 04: minimum elevation drop used for Conduit 2446
  WARNING 03: negative offset ignored for Link 2497
  WARNING 03: negative offset ignored for Link 2504
  WARNING 03: negative offset ignored for Link 2574
  WARNING 04: minimum elevation drop used for Conduit 2574
  WARNING 03: negative offset ignored for Link 2577
  WARNING 04: minimum elevation drop used for Conduit 2580
  WARNING 04: minimum elevation drop used for Conduit 2603
  WARNING 03: negative offset ignored for Link 2604
  WARNING 04: minimum elevation drop used for Conduit 2616
  WARNING 03: negative offset ignored for Link 2641
  WARNING 04: minimum elevation drop used for Conduit 2648
  WARNING 04: minimum elevation drop used for Conduit 2652
  WARNING 04: minimum elevation drop used for Conduit 2661
  WARNING 04: minimum elevation drop used for Conduit 2665
  WARNING 04: minimum elevation drop used for Conduit 2666
  WARNING 04: minimum elevation drop used for Conduit 2670
  WARNING 04: minimum elevation drop used for Conduit 2672
  WARNING 04: minimum elevation drop used for Conduit 27
  WARNING 04: minimum elevation drop used for Conduit 2702
  WARNING 04: minimum elevation drop used for Conduit 2703
  WARNING 04: minimum elevation drop used for Conduit 2710
  WARNING 04: minimum elevation drop used for Conduit 2715
  WARNING 04: minimum elevation drop used for Conduit 2717
  WARNING 03: negative offset ignored for Link 2763
  WARNING 03: negative offset ignored for Link 2765
  WARNING 04: minimum elevation drop used for Conduit 2829
  WARNING 04: minimum elevation drop used for Conduit 2860
  WARNING 04: minimum elevation drop used for Conduit 2878
  WARNING 04: minimum elevation drop used for Conduit 2893
  WARNING 04: minimum elevation drop used for Conduit 2896
  WARNING 04: minimum elevation drop used for Conduit 2936
  WARNING 04: minimum elevation drop used for Conduit 2938
  WARNING 03: negative offset ignored for Link 2984
  WARNING 04: minimum elevation drop used for Conduit 3003
  WARNING 03: negative offset ignored for Link 3080
  WARNING 03: negative offset ignored for Link 3099
  WARNING 04: minimum elevation drop used for Conduit 3102
  WARNING 04: minimum elevation drop used for Conduit 3111
  WARNING 04: minimum elevation drop used for Conduit 3122
  WARNING 04: minimum elevation drop used for Conduit 3123
  WARNING 03: negative offset ignored for Link 3180
  WARNING 03: negative offset ignored for Link 3186
  WARNING 03: negative offset ignored for Link 3274
  WARNING 03: negative offset ignored for Link 3281
  WARNING 03: negative offset ignored for Link 3291
  WARNING 03: negative offset ignored for Link 3300
  WARNING 03: negative offset ignored for Link 3303
  WARNING 03: negative offset ignored for Link 3309
  WARNING 04: minimum elevation drop used for Conduit 3309
  WARNING 03: negative offset ignored for Link 3313
  WARNING 04: minimum elevation drop used for Conduit 3368
  WARNING 03: negative offset ignored for Link 3377
  WARNING 04: minimum elevation drop used for Conduit 3377
  WARNING 03: negative offset ignored for Link 3387
  WARNING 04: minimum elevation drop used for Conduit 3387
  WARNING 04: minimum elevation drop used for Conduit 3393
  WARNING 03: negative offset ignored for Link 3406
  WARNING 04: minimum elevation drop used for Conduit 3406
  WARNING 03: negative offset ignored for Link 345
  WARNING 04: minimum elevation drop used for Conduit 345
  WARNING 04: minimum elevation drop used for Conduit 3454
  WARNING 03: negative offset ignored for Link 346
  WARNING 04: minimum elevation drop used for Conduit 346
  WARNING 04: minimum elevation drop used for Conduit 3479
  WARNING 03: negative offset ignored for Link 349
  WARNING 04: minimum elevation drop used for Conduit 349
  WARNING 03: negative offset ignored for Link 351
  WARNING 04: minimum elevation drop used for Conduit 351
  WARNING 03: negative offset ignored for Link 3535
  WARNING 03: negative offset ignored for Link 355
  WARNING 04: minimum elevation drop used for Conduit 355
  WARNING 04: minimum elevation drop used for Conduit 3554
  WARNING 03: negative offset ignored for Link 3556
  WARNING 03: negative offset ignored for Link 356
  WARNING 04: minimum elevation drop used for Conduit 356
  WARNING 03: negative offset ignored for Link 3560
  WARNING 04: minimum elevation drop used for Conduit 3562
  WARNING 03: negative offset ignored for Link 3566
  WARNING 03: negative offset ignored for Link 357
  WARNING 04: minimum elevation drop used for Conduit 357
  WARNING 03: negative offset ignored for Link 3570
  WARNING 04: minimum elevation drop used for Conduit 3571
  WARNING 03: negative offset ignored for Link 3576
  WARNING 03: negative offset ignored for Link 3580
  WARNING 04: minimum elevation drop used for Conduit 3581
  WARNING 04: minimum elevation drop used for Conduit 3582
  WARNING 03: negative offset ignored for Link 3583
  WARNING 03: negative offset ignored for Link 3586
  WARNING 03: negative offset ignored for Link 3598
  WARNING 03: negative offset ignored for Link 3599
  WARNING 03: negative offset ignored for Link 3602
  WARNING 03: negative offset ignored for Link 3604
  WARNING 04: minimum elevation drop used for Conduit 3606
  WARNING 04: minimum elevation drop used for Conduit 3608
  WARNING 04: minimum elevation drop used for Conduit 3610
  WARNING 04: minimum elevation drop used for Conduit 3613
  WARNING 03: negative offset ignored for Link 3616
  WARNING 03: negative offset ignored for Link 3617
  WARNING 03: negative offset ignored for Link 3617
  WARNING 03: negative offset ignored for Link 3632
  WARNING 03: negative offset ignored for Link 3634
  WARNING 03: negative offset ignored for Link 3636
  WARNING 03: negative offset ignored for Link 3637
  WARNING 03: negative offset ignored for Link 3646
  WARNING 03: negative offset ignored for Link 3649
  WARNING 03: negative offset ignored for Link 3678
  WARNING 03: negative offset ignored for Link 3678
  WARNING 03: negative offset ignored for Link 3679
  WARNING 03: negative offset ignored for Link 3683
  WARNING 03: negative offset ignored for Link 3683
  WARNING 03: negative offset ignored for Link 3686
  WARNING 03: negative offset ignored for Link 3689
  WARNING 03: negative offset ignored for Link 3695
  WARNING 03: negative offset ignored for Link 3723
  WARNING 03: negative offset ignored for Link 3731
  WARNING 03: negative offset ignored for Link 3733
  WARNING 03: negative offset ignored for Link 3735
  WARNING 03: negative offset ignored for Link 3744
  WARNING 03: negative offset ignored for Link 3746
  WARNING 03: negative offset ignored for Link 3748
  WARNING 03: negative offset ignored for Link 3750
  WARNING 04: minimum elevation drop used for Conduit 3779
  WARNING 04: minimum elevation drop used for Conduit 3789
  WARNING 04: minimum elevation drop used for Conduit 38
  WARNING 03: negative offset ignored for Link 3801
  WARNING 03: negative offset ignored for Link 3810
  WARNING 03: negative offset ignored for Link 3824
  WARNING 03: negative offset ignored for Link 3825
  WARNING 03: negative offset ignored for Link 3826
  WARNING 03: negative offset ignored for Link 3839
  WARNING 03: negative offset ignored for Link 3855
  WARNING 03: negative offset ignored for Link 3858
  WARNING 03: negative offset ignored for Link 3862
  WARNING 03: negative offset ignored for Link 3865
  WARNING 03: negative offset ignored for Link 3870
  WARNING 03: negative offset ignored for Link 3877
  WARNING 03: negative offset ignored for Link 3878
  WARNING 04: minimum elevation drop used for Conduit 4
  WARNING 03: negative offset ignored for Link 4032
  WARNING 04: minimum elevation drop used for Conduit 4032
  WARNING 04: minimum elevation drop used for Conduit 4178
  WARNING 03: negative offset ignored for Link 4269
  WARNING 04: minimum elevation drop used for Conduit 4269
  WARNING 03: negative offset ignored for Link 4270
  WARNING 04: minimum elevation drop used for Conduit 4270
  WARNING 04: minimum elevation drop used for Conduit 4275
  WARNING 03: negative offset ignored for Link 4280
  WARNING 04: minimum elevation drop used for Conduit 4280
  WARNING 03: negative offset ignored for Link 4285
  WARNING 04: minimum elevation drop used for Conduit 4285
  WARNING 03: negative offset ignored for Link 4286
  WARNING 04: minimum elevation drop used for Conduit 4286
  WARNING 04: minimum elevation drop used for Conduit 43
  WARNING 04: minimum elevation drop used for Conduit 4384
  WARNING 04: minimum elevation drop used for Conduit 4388
  WARNING 04: minimum elevation drop used for Conduit 4422
  WARNING 03: negative offset ignored for Link 4500
  WARNING 04: minimum elevation drop used for Conduit 4500
  WARNING 03: negative offset ignored for Link 4501
  WARNING 04: minimum elevation drop used for Conduit 4501
  WARNING 03: negative offset ignored for Link 4502
  WARNING 04: minimum elevation drop used for Conduit 4502
  WARNING 03: negative offset ignored for Link 4523
  WARNING 04: minimum elevation drop used for Conduit 4523
  WARNING 04: minimum elevation drop used for Conduit 4535
  WARNING 04: minimum elevation drop used for Conduit 4557
  WARNING 04: minimum elevation drop used for Conduit 4570
  WARNING 04: minimum elevation drop used for Conduit 4571
  WARNING 04: minimum elevation drop used for Conduit 4572
  WARNING 04: minimum elevation drop used for Conduit 4573
  WARNING 03: negative offset ignored for Link 4576
  WARNING 04: minimum elevation drop used for Conduit 4576
  WARNING 04: minimum elevation drop used for Conduit 4577
  WARNING 04: minimum elevation drop used for Conduit 4578
  WARNING 04: minimum elevation drop used for Conduit 4579
  WARNING 04: minimum elevation drop used for Conduit 4580
  WARNING 04: minimum elevation drop used for Conduit 4581
  WARNING 04: minimum elevation drop used for Conduit 4583
  WARNING 04: minimum elevation drop used for Conduit 4584
  WARNING 04: minimum elevation drop used for Conduit 4585
  WARNING 04: minimum elevation drop used for Conduit 4588
  WARNING 04: minimum elevation drop used for Conduit 4590
  WARNING 04: minimum elevation drop used for Conduit 4593
  WARNING 04: minimum elevation drop used for Conduit 4594
  WARNING 04: minimum elevation drop used for Conduit 4595
  WARNING 04: minimum elevation drop used for Conduit 4598
  WARNING 04: minimum elevation drop used for Conduit 4599
  WARNING 04: minimum elevation drop used for Conduit 4600
  WARNING 04: minimum elevation drop used for Conduit 4601
  WARNING 04: minimum elevation drop used for Conduit 4602
  WARNING 04: minimum elevation drop used for Conduit 4603
  WARNING 04: minimum elevation drop used for Conduit 4607
  WARNING 04: minimum elevation drop used for Conduit 4609
  WARNING 04: minimum elevation drop used for Conduit 4610
  WARNING 04: minimum elevation drop used for Conduit 4611
  WARNING 04: minimum elevation drop used for Conduit 4621
  WARNING 04: minimum elevation drop used for Conduit 4623
  WARNING 04: minimum elevation drop used for Conduit 4624
  WARNING 04: minimum elevation drop used for Conduit 4625
  WARNING 04: minimum elevation drop used for Conduit 4627
  WARNING 04: minimum elevation drop used for Conduit 4628
  WARNING 04: minimum elevation drop used for Conduit 4630
  WARNING 04: minimum elevation drop used for Conduit 4631
  WARNING 04: minimum elevation drop used for Conduit 4633
  WARNING 04: minimum elevation drop used for Conduit 4634
  WARNING 04: minimum elevation drop used for Conduit 4635
  WARNING 04: minimum elevation drop used for Conduit 4636
  WARNING 04: minimum elevation drop used for Conduit 4637
  WARNING 04: minimum elevation drop used for Conduit 4639
  WARNING 04: minimum elevation drop used for Conduit 4640
  WARNING 04: minimum elevation drop used for Conduit 4641
  WARNING 04: minimum elevation drop used for Conduit 4642
  WARNING 04: minimum elevation drop used for Conduit 4644
  WARNING 04: minimum elevation drop used for Conduit 4649
  WARNING 04: minimum elevation drop used for Conduit 4651
  WARNING 04: minimum elevation drop used for Conduit 4654
  WARNING 04: minimum elevation drop used for Conduit 4656
  WARNING 04: minimum elevation drop used for Conduit 4657
  WARNING 04: minimum elevation drop used for Conduit 4664
  WARNING 04: minimum elevation drop used for Conduit 4665
  WARNING 04: minimum elevation drop used for Conduit 4666
  WARNING 04: minimum elevation drop used for Conduit 4667
  WARNING 04: minimum elevation drop used for Conduit 4668
  WARNING 04: minimum elevation drop used for Conduit 4669
  WARNING 04: minimum elevation drop used for Conduit 4671
  WARNING 04: minimum elevation drop used for Conduit 4672
  WARNING 04: minimum elevation drop used for Conduit 4673
  WARNING 04: minimum elevation drop used for Conduit 4677
  WARNING 04: minimum elevation drop used for Conduit 4678
  WARNING 04: minimum elevation drop used for Conduit 4680
  WARNING 04: minimum elevation drop used for Conduit 4681
  WARNING 04: minimum elevation drop used for Conduit 4683
  WARNING 04: minimum elevation drop used for Conduit 4706
  WARNING 04: minimum elevation drop used for Conduit 4709
  WARNING 04: minimum elevation drop used for Conduit 4710
  WARNING 04: minimum elevation drop used for Conduit 4711
  WARNING 04: minimum elevation drop used for Conduit 4714
  WARNING 04: minimum elevation drop used for Conduit 4717
  WARNING 04: minimum elevation drop used for Conduit 4725
  WARNING 04: minimum elevation drop used for Conduit 4727
  WARNING 04: minimum elevation drop used for Conduit 4732
  WARNING 04: minimum elevation drop used for Conduit 4733
  WARNING 04: minimum elevation drop used for Conduit 4737
  WARNING 04: minimum elevation drop used for Conduit 4741
  WARNING 04: minimum elevation drop used for Conduit 4746
  WARNING 04: minimum elevation drop used for Conduit 4747
  WARNING 03: negative offset ignored for Link 476
  WARNING 04: minimum elevation drop used for Conduit 476
  WARNING 04: minimum elevation drop used for Conduit 4765
  WARNING 04: minimum elevation drop used for Conduit 4766
  WARNING 04: minimum elevation drop used for Conduit 4767
  WARNING 04: minimum elevation drop used for Conduit 4768
  WARNING 04: minimum elevation drop used for Conduit 4770
  WARNING 04: minimum elevation drop used for Conduit 4773
  WARNING 04: minimum elevation drop used for Conduit 4776
  WARNING 04: minimum elevation drop used for Conduit 4777
  WARNING 04: minimum elevation drop used for Conduit 4778
  WARNING 04: minimum elevation drop used for Conduit 4779
  WARNING 04: minimum elevation drop used for Conduit 4780
  WARNING 04: minimum elevation drop used for Conduit 4781
  WARNING 04: minimum elevation drop used for Conduit 4782
  WARNING 04: minimum elevation drop used for Conduit 4784
  WARNING 04: minimum elevation drop used for Conduit 4787
  WARNING 04: minimum elevation drop used for Conduit 4788
  WARNING 04: minimum elevation drop used for Conduit 4790
  WARNING 04: minimum elevation drop used for Conduit 4792
  WARNING 04: minimum elevation drop used for Conduit 4793
  WARNING 04: minimum elevation drop used for Conduit 4794
  WARNING 04: minimum elevation drop used for Conduit 4801
  WARNING 04: minimum elevation drop used for Conduit 4802
  WARNING 04: minimum elevation drop used for Conduit 4803
  WARNING 04: minimum elevation drop used for Conduit 4804
  WARNING 04: minimum elevation drop used for Conduit 4805
  WARNING 04: minimum elevation drop used for Conduit 4806
  WARNING 04: minimum elevation drop used for Conduit 4807
  WARNING 04: minimum elevation drop used for Conduit 4809
  WARNING 04: minimum elevation drop used for Conduit 4810
  WARNING 04: minimum elevation drop used for Conduit 4811
  WARNING 04: minimum elevation drop used for Conduit 4815
  WARNING 04: minimum elevation drop used for Conduit 4816
  WARNING 04: minimum elevation drop used for Conduit 4817
  WARNING 04: minimum elevation drop used for Conduit 4822
  WARNING 04: minimum elevation drop used for Conduit 4829
  WARNING 04: minimum elevation drop used for Conduit 4841
  WARNING 04: minimum elevation drop used for Conduit 4842
  WARNING 04: minimum elevation drop used for Conduit 4859
  WARNING 04: minimum elevation drop used for Conduit 4872
  WARNING 04: minimum elevation drop used for Conduit 4873
  WARNING 04: minimum elevation drop used for Conduit 4874
  WARNING 04: minimum elevation drop used for Conduit 4879
  WARNING 04: minimum elevation drop used for Conduit 4881
  WARNING 04: minimum elevation drop used for Conduit 4882
  WARNING 04: minimum elevation drop used for Conduit 4883
  WARNING 04: minimum elevation drop used for Conduit 4884
  WARNING 04: minimum elevation drop used for Conduit 4889
  WARNING 04: minimum elevation drop used for Conduit 4893
  WARNING 04: minimum elevation drop used for Conduit 4894
  WARNING 04: minimum elevation drop used for Conduit 49
  WARNING 04: minimum elevation drop used for Conduit 4900
  WARNING 04: minimum elevation drop used for Conduit 4902
  WARNING 04: minimum elevation drop used for Conduit 4903
  WARNING 04: minimum elevation drop used for Conduit 4905
  WARNING 04: minimum elevation drop used for Conduit 4906
  WARNING 04: minimum elevation drop used for Conduit 4908
  WARNING 04: minimum elevation drop used for Conduit 4911
  WARNING 04: minimum elevation drop used for Conduit 4912
  WARNING 04: minimum elevation drop used for Conduit 4915
  WARNING 04: minimum elevation drop used for Conduit 4916
  WARNING 04: minimum elevation drop used for Conduit 4918
  WARNING 04: minimum elevation drop used for Conduit 4924
  WARNING 04: minimum elevation drop used for Conduit 4927
  WARNING 04: minimum elevation drop used for Conduit 4928
  WARNING 04: minimum elevation drop used for Conduit 4933
  WARNING 04: minimum elevation drop used for Conduit 4935
  WARNING 04: minimum elevation drop used for Conduit 4936
  WARNING 04: minimum elevation drop used for Conduit 4937
  WARNING 04: minimum elevation drop used for Conduit 4938
  WARNING 04: minimum elevation drop used for Conduit 4940
  WARNING 04: minimum elevation drop used for Conduit 4941
  WARNING 04: minimum elevation drop used for Conduit 4942
  WARNING 04: minimum elevation drop used for Conduit 4943
  WARNING 04: minimum elevation drop used for Conduit 4944
  WARNING 04: minimum elevation drop used for Conduit 4945
  WARNING 04: minimum elevation drop used for Conduit 4947
  WARNING 04: minimum elevation drop used for Conduit 4948
  WARNING 04: minimum elevation drop used for Conduit 4949
  WARNING 04: minimum elevation drop used for Conduit 4950
  WARNING 04: minimum elevation drop used for Conduit 4951
  WARNING 04: minimum elevation drop used for Conduit 4952
  WARNING 04: minimum elevation drop used for Conduit 4953
  WARNING 04: minimum elevation drop used for Conduit 4954
  WARNING 04: minimum elevation drop used for Conduit 4955
  WARNING 04: minimum elevation drop used for Conduit 4956
  WARNING 04: minimum elevation drop used for Conduit 4957
  WARNING 04: minimum elevation drop used for Conduit 4958
  WARNING 04: minimum elevation drop used for Conduit 4960
  WARNING 04: minimum elevation drop used for Conduit 4962
  WARNING 04: minimum elevation drop used for Conduit 4963
  WARNING 04: minimum elevation drop used for Conduit 4964
  WARNING 04: minimum elevation drop used for Conduit 4965
  WARNING 04: minimum elevation drop used for Conduit 4971
  WARNING 04: minimum elevation drop used for Conduit 4972
  WARNING 04: minimum elevation drop used for Conduit 4973
  WARNING 04: minimum elevation drop used for Conduit 4974
  WARNING 04: minimum elevation drop used for Conduit 4975
  WARNING 04: minimum elevation drop used for Conduit 4976
  WARNING 04: minimum elevation drop used for Conduit 4977
  WARNING 04: minimum elevation drop used for Conduit 4978
  WARNING 04: minimum elevation drop used for Conduit 4979
  WARNING 03: negative offset ignored for Link 498
  WARNING 04: minimum elevation drop used for Conduit 4984
  WARNING 04: minimum elevation drop used for Conduit 4987
  WARNING 04: minimum elevation drop used for Conduit 4989
  WARNING 04: minimum elevation drop used for Conduit 5006
  WARNING 04: minimum elevation drop used for Conduit 5007
  WARNING 04: minimum elevation drop used for Conduit 5008
  WARNING 04: minimum elevation drop used for Conduit 5009
  WARNING 04: minimum elevation drop used for Conduit 5012
  WARNING 04: minimum elevation drop used for Conduit 5013
  WARNING 04: minimum elevation drop used for Conduit 5014
  WARNING 04: minimum elevation drop used for Conduit 5016
  WARNING 04: minimum elevation drop used for Conduit 5017
  WARNING 04: minimum elevation drop used for Conduit 5018
  WARNING 04: minimum elevation drop used for Conduit 5019
  WARNING 04: minimum elevation drop used for Conduit 5020
  WARNING 04: minimum elevation drop used for Conduit 5021
  WARNING 04: minimum elevation drop used for Conduit 5022
  WARNING 04: minimum elevation drop used for Conduit 5023
  WARNING 04: minimum elevation drop used for Conduit 5025
  WARNING 04: minimum elevation drop used for Conduit 5026
  WARNING 04: minimum elevation drop used for Conduit 5027
  WARNING 04: minimum elevation drop used for Conduit 5028
  WARNING 04: minimum elevation drop used for Conduit 5029
  WARNING 04: minimum elevation drop used for Conduit 5030
  WARNING 04: minimum elevation drop used for Conduit 5031
  WARNING 04: minimum elevation drop used for Conduit 5032
  WARNING 04: minimum elevation drop used for Conduit 5033
  WARNING 04: minimum elevation drop used for Conduit 5034
  WARNING 04: minimum elevation drop used for Conduit 5035
  WARNING 04: minimum elevation drop used for Conduit 5036
  WARNING 04: minimum elevation drop used for Conduit 5037
  WARNING 04: minimum elevation drop used for Conduit 5038
  WARNING 04: minimum elevation drop used for Conduit 5039
  WARNING 04: minimum elevation drop used for Conduit 5040
  WARNING 04: minimum elevation drop used for Conduit 5041
  WARNING 04: minimum elevation drop used for Conduit 5042
  WARNING 04: minimum elevation drop used for Conduit 5043
  WARNING 04: minimum elevation drop used for Conduit 5044
  WARNING 04: minimum elevation drop used for Conduit 5045
  WARNING 04: minimum elevation drop used for Conduit 5046
  WARNING 04: minimum elevation drop used for Conduit 5047
  WARNING 04: minimum elevation drop used for Conduit 5153
  WARNING 04: minimum elevation drop used for Conduit 5210
  WARNING 04: minimum elevation drop used for Conduit 5215
  WARNING 04: minimum elevation drop used for Conduit 5241
  WARNING 04: minimum elevation drop used for Conduit 5250
  WARNING 03: negative offset ignored for Link 5307
  WARNING 03: negative offset ignored for Link 5320
  WARNING 04: minimum elevation drop used for Conduit 5370
  WARNING 04: minimum elevation drop used for Conduit 5371
  WARNING 04: minimum elevation drop used for Conduit 5388
  WARNING 04: minimum elevation drop used for Conduit 5391
  WARNING 04: minimum elevation drop used for Conduit 5393
  WARNING 04: minimum elevation drop used for Conduit 5394
  WARNING 04: minimum elevation drop used for Conduit 5395
  WARNING 04: minimum elevation drop used for Conduit 5398
  WARNING 04: minimum elevation drop used for Conduit 5399
  WARNING 04: minimum elevation drop used for Conduit 5400
  WARNING 04: minimum elevation drop used for Conduit 5401
  WARNING 04: minimum elevation drop used for Conduit 5403
  WARNING 04: minimum elevation drop used for Conduit 5404
  WARNING 04: minimum elevation drop used for Conduit 5406
  WARNING 04: minimum elevation drop used for Conduit 5407
  WARNING 04: minimum elevation drop used for Conduit 5408
  WARNING 04: minimum elevation drop used for Conduit 5409
  WARNING 04: minimum elevation drop used for Conduit 5410
  WARNING 04: minimum elevation drop used for Conduit 5411
  WARNING 04: minimum elevation drop used for Conduit 5412
  WARNING 04: minimum elevation drop used for Conduit 5413
  WARNING 04: minimum elevation drop used for Conduit 5414
  WARNING 04: minimum elevation drop used for Conduit 5417
  WARNING 04: minimum elevation drop used for Conduit 5418
  WARNING 04: minimum elevation drop used for Conduit 5420
  WARNING 04: minimum elevation drop used for Conduit 5422
  WARNING 04: minimum elevation drop used for Conduit 5426
  WARNING 04: minimum elevation drop used for Conduit 5429
  WARNING 04: minimum elevation drop used for Conduit 5470
  WARNING 04: minimum elevation drop used for Conduit 5552
  WARNING 04: minimum elevation drop used for Conduit 5553
  WARNING 04: minimum elevation drop used for Conduit 5601
  WARNING 04: minimum elevation drop used for Conduit 5604
  WARNING 04: minimum elevation drop used for Conduit 5607
  WARNING 04: minimum elevation drop used for Conduit 5608
  WARNING 04: minimum elevation drop used for Conduit 5610
  WARNING 04: minimum elevation drop used for Conduit 5611
  WARNING 04: minimum elevation drop used for Conduit 5612
  WARNING 03: negative offset ignored for Link 5622
  WARNING 04: minimum elevation drop used for Conduit 5645
  WARNING 04: minimum elevation drop used for Conduit 57
  WARNING 03: negative offset ignored for Link 576
  WARNING 04: minimum elevation drop used for Conduit 576
  WARNING 03: negative offset ignored for Link 5781
  WARNING 03: negative offset ignored for Link 5782
  WARNING 04: minimum elevation drop used for Conduit 58
  WARNING 03: negative offset ignored for Link 5839
  WARNING 04: minimum elevation drop used for Conduit 5846
  WARNING 04: minimum elevation drop used for Conduit 5854
  WARNING 04: minimum elevation drop used for Conduit 5922
  WARNING 04: minimum elevation drop used for Conduit 5923
  WARNING 03: negative offset ignored for Link 5934
  WARNING 03: negative offset ignored for Link 6011
  WARNING 03: negative offset ignored for Link 6119
  WARNING 04: minimum elevation drop used for Conduit 6132
  WARNING 04: minimum elevation drop used for Conduit 6133
  WARNING 04: minimum elevation drop used for Conduit 6135
  WARNING 04: minimum elevation drop used for Conduit 6136
  WARNING 04: minimum elevation drop used for Conduit 6138
  WARNING 04: minimum elevation drop used for Conduit 6139
  WARNING 04: minimum elevation drop used for Conduit 6145
  WARNING 04: minimum elevation drop used for Conduit 6147
  WARNING 04: minimum elevation drop used for Conduit 6148
  WARNING 04: minimum elevation drop used for Conduit 6152
  WARNING 04: minimum elevation drop used for Conduit 6158
  WARNING 04: minimum elevation drop used for Conduit 6159
  WARNING 03: negative offset ignored for Link 6165
  WARNING 04: minimum elevation drop used for Conduit 6198
  WARNING 04: minimum elevation drop used for Conduit 6199
  WARNING 04: minimum elevation drop used for Conduit 6200
  WARNING 04: minimum elevation drop used for Conduit 6208
  WARNING 04: minimum elevation drop used for Conduit 6218
  WARNING 04: minimum elevation drop used for Conduit 6230
  WARNING 04: minimum elevation drop used for Conduit 6231
  WARNING 04: minimum elevation drop used for Conduit 6232
  WARNING 03: negative offset ignored for Link 6233
  WARNING 03: negative offset ignored for Link 6252
  WARNING 03: negative offset ignored for Link 648
  WARNING 04: minimum elevation drop used for Conduit 65
  WARNING 04: minimum elevation drop used for Conduit 66
  WARNING 04: minimum elevation drop used for Conduit 67
  WARNING 03: negative offset ignored for Link 6825
  WARNING 03: negative offset ignored for Link 6841
  WARNING 04: minimum elevation drop used for Conduit 6841
  WARNING 03: negative offset ignored for Link 6842
  WARNING 03: negative offset ignored for Link 6844
  WARNING 03: negative offset ignored for Link 6881
  WARNING 03: negative offset ignored for Link 6887
  WARNING 04: minimum elevation drop used for Conduit 69
  WARNING 03: negative offset ignored for Link 691
  WARNING 03: negative offset ignored for Link 6981
  WARNING 03: negative offset ignored for Link 700
  WARNING 03: negative offset ignored for Link 7010
  WARNING 03: negative offset ignored for Link 703
  WARNING 03: negative offset ignored for Link 7068
  WARNING 03: negative offset ignored for Link 7072
  WARNING 03: negative offset ignored for Link 7073
  WARNING 03: negative offset ignored for Link 7074
  WARNING 03: negative offset ignored for Link 7095
  WARNING 03: negative offset ignored for Link 7114
  WARNING 03: negative offset ignored for Link 7323
  WARNING 03: negative offset ignored for Link 7325
  WARNING 03: negative offset ignored for Link 7335
  WARNING 03: negative offset ignored for Link 7404
  WARNING 04: minimum elevation drop used for Conduit 7404
  WARNING 03: negative offset ignored for Link 7433
  WARNING 03: negative offset ignored for Link 7528
  WARNING 04: minimum elevation drop used for Conduit 7528
  WARNING 04: minimum elevation drop used for Conduit 76
  WARNING 03: negative offset ignored for Link 7624
  WARNING 03: negative offset ignored for Link 7680
  WARNING 03: negative offset ignored for Link 7686
  WARNING 03: negative offset ignored for Link 7689
  WARNING 03: negative offset ignored for Link 7708
  WARNING 04: minimum elevation drop used for Conduit 78
  WARNING 03: negative offset ignored for Link 7905
  WARNING 03: negative offset ignored for Link 7926
  WARNING 03: negative offset ignored for Link 7935
  WARNING 03: negative offset ignored for Link 8023
  WARNING 03: negative offset ignored for Link 8036
  WARNING 03: negative offset ignored for Link 8063
  WARNING 03: negative offset ignored for Link 8091
  WARNING 03: negative offset ignored for Link 8106
  WARNING 03: negative offset ignored for Link 8308
  WARNING 03: negative offset ignored for Link 8354
  WARNING 03: negative offset ignored for Link 8395
  WARNING 03: negative offset ignored for Link 8395
  WARNING 03: negative offset ignored for Link 8443
  WARNING 03: negative offset ignored for Link 8497
  WARNING 03: negative offset ignored for Link 8541
  WARNING 03: negative offset ignored for Link 8559
  WARNING 04: minimum elevation drop used for Conduit 8559
  WARNING 03: negative offset ignored for Link 8579
  WARNING 04: minimum elevation drop used for Conduit 8579
  WARNING 03: negative offset ignored for Link 8894
  WARNING 03: negative offset ignored for Link 9028
  WARNING 03: negative offset ignored for Link 9079
  WARNING 03: negative offset ignored for Link 9079
  WARNING 03: negative offset ignored for Link 9095
  WARNING 03: negative offset ignored for Link 9096
  WARNING 03: negative offset ignored for Link 9097
  WARNING 04: minimum elevation drop used for Conduit 91
  WARNING 03: negative offset ignored for Link 9116
  WARNING 03: negative offset ignored for Link 9123
  WARNING 03: negative offset ignored for Link 9131
  WARNING 04: minimum elevation drop used for Conduit 9131
  WARNING 03: negative offset ignored for Link 917
  WARNING 03: negative offset ignored for Link 9183
  WARNING 04: minimum elevation drop used for Conduit 9183
  WARNING 03: negative offset ignored for Link 9313
  WARNING 03: negative offset ignored for Link 9320
  WARNING 03: negative offset ignored for Link 9326
  WARNING 03: negative offset ignored for Link 9326
  WARNING 03: negative offset ignored for Link 9336
  WARNING 04: minimum elevation drop used for Conduit 9343
  WARNING 03: negative offset ignored for Link 9349
  WARNING 03: negative offset ignored for Link 9350
  WARNING 03: negative offset ignored for Link 9388
  WARNING 04: minimum elevation drop used for Conduit 9388
  WARNING 03: negative offset ignored for Link 9392
  WARNING 04: minimum elevation drop used for Conduit 9392
  WARNING 03: negative offset ignored for Link 9396
  WARNING 03: negative offset ignored for Link 9397
  WARNING 03: negative offset ignored for Link 9398
  WARNING 03: negative offset ignored for Link 9407
  WARNING 03: negative offset ignored for Link 9410
  WARNING 03: negative offset ignored for Link 9415
  WARNING 03: negative offset ignored for Link 9415
  WARNING 03: negative offset ignored for Link 9550
  WARNING 03: negative offset ignored for Link 9556
  WARNING 03: negative offset ignored for Link 9564
  WARNING 03: negative offset ignored for Link 9566
  WARNING 03: negative offset ignored for Link 9621
  WARNING 03: negative offset ignored for Link 9623
  WARNING 03: negative offset ignored for Link 9664
  WARNING 03: negative offset ignored for Link 9664
  WARNING 03: negative offset ignored for Link 9667
  WARNING 03: negative offset ignored for Link 9667
  WARNING 03: negative offset ignored for Link 9713
  WARNING 03: negative offset ignored for Link 9721
  WARNING 03: negative offset ignored for Link 9850
  WARNING 03: negative offset ignored for Link CDT-1003
  WARNING 03: negative offset ignored for Link CDT-1005
  WARNING 03: negative offset ignored for Link CDT-1007
  WARNING 04: minimum elevation drop used for Conduit CDT-1009
  WARNING 04: minimum elevation drop used for Conduit CDT-101
  WARNING 03: negative offset ignored for Link CDT-1013
  WARNING 04: minimum elevation drop used for Conduit CDT-1015
  WARNING 04: minimum elevation drop used for Conduit CDT-1017
  WARNING 03: negative offset ignored for Link CDT-1019
  WARNING 03: negative offset ignored for Link CDT-103
  WARNING 04: minimum elevation drop used for Conduit CDT-1031
  WARNING 04: minimum elevation drop used for Conduit CDT-1033
  WARNING 04: minimum elevation drop used for Conduit CDT-1037
  WARNING 03: negative offset ignored for Link CDT-1039
  WARNING 03: negative offset ignored for Link CDT-1041
  WARNING 03: negative offset ignored for Link CDT-1049
  WARNING 03: negative offset ignored for Link CDT-1049
  WARNING 04: minimum elevation drop used for Conduit CDT-1049
  WARNING 04: minimum elevation drop used for Conduit CDT-105
  WARNING 04: minimum elevation drop used for Conduit CDT-1053
  WARNING 04: minimum elevation drop used for Conduit CDT-1065
  WARNING 04: minimum elevation drop used for Conduit CDT-1067
  WARNING 04: minimum elevation drop used for Conduit CDT-1069
  WARNING 04: minimum elevation drop used for Conduit CDT-1071
  WARNING 03: negative offset ignored for Link CDT-1079
  WARNING 03: negative offset ignored for Link CDT-1087
  WARNING 04: minimum elevation drop used for Conduit CDT-1091
  WARNING 03: negative offset ignored for Link CDT-1093
  WARNING 03: negative offset ignored for Link CDT-1097
  WARNING 03: negative offset ignored for Link CDT-1099
  WARNING 03: negative offset ignored for Link CDT-1099
  WARNING 04: minimum elevation drop used for Conduit CDT-1105
  WARNING 04: minimum elevation drop used for Conduit CDT-1107
  WARNING 03: negative offset ignored for Link CDT-1113
  WARNING 03: negative offset ignored for Link CDT-113
  WARNING 04: minimum elevation drop used for Conduit CDT-1141
  WARNING 03: negative offset ignored for Link CDT-1173
  WARNING 03: negative offset ignored for Link CDT-1173
  WARNING 04: minimum elevation drop used for Conduit CDT-1177
  WARNING 03: negative offset ignored for Link CDT-1185
  WARNING 03: negative offset ignored for Link CDT-1185
  WARNING 03: negative offset ignored for Link CDT-1187
  WARNING 03: negative offset ignored for Link CDT-1187
  WARNING 04: minimum elevation drop used for Conduit CDT-1187
  WARNING 04: minimum elevation drop used for Conduit CDT-1189
  WARNING 04: minimum elevation drop used for Conduit CDT-1193
  WARNING 04: minimum elevation drop used for Conduit CDT-1195
  WARNING 04: minimum elevation drop used for Conduit CDT-1197
  WARNING 04: minimum elevation drop used for Conduit CDT-1199
  WARNING 04: minimum elevation drop used for Conduit CDT-121
  WARNING 03: negative offset ignored for Link CDT-1211
  WARNING 04: minimum elevation drop used for Conduit CDT-1213
  WARNING 03: negative offset ignored for Link CDT-1215
  WARNING 04: minimum elevation drop used for Conduit CDT-1217
  WARNING 04: minimum elevation drop used for Conduit CDT-1223
  WARNING 04: minimum elevation drop used for Conduit CDT-1225
  WARNING 04: minimum elevation drop used for Conduit CDT-123
  WARNING 04: minimum elevation drop used for Conduit CDT-1237
  WARNING 03: negative offset ignored for Link CDT-1239
  WARNING 04: minimum elevation drop used for Conduit CDT-1249
  WARNING 04: minimum elevation drop used for Conduit CDT-1253
  WARNING 03: negative offset ignored for Link CDT-1255
  WARNING 04: minimum elevation drop used for Conduit CDT-1269
  WARNING 04: minimum elevation drop used for Conduit CDT-1273
  WARNING 04: minimum elevation drop used for Conduit CDT-1275
  WARNING 04: minimum elevation drop used for Conduit CDT-1277
  WARNING 03: negative offset ignored for Link CDT-1283
  WARNING 03: negative offset ignored for Link CDT-1283
  WARNING 04: minimum elevation drop used for Conduit CDT-1285
  WARNING 04: minimum elevation drop used for Conduit CDT-1287
  WARNING 03: negative offset ignored for Link CDT-1289
  WARNING 04: minimum elevation drop used for Conduit CDT-1291
  WARNING 04: minimum elevation drop used for Conduit CDT-1293
  WARNING 04: minimum elevation drop used for Conduit CDT-1295
  WARNING 04: minimum elevation drop used for Conduit CDT-1297
  WARNING 04: minimum elevation drop used for Conduit CDT-131
  WARNING 04: minimum elevation drop used for Conduit CDT-159
  WARNING 04: minimum elevation drop used for Conduit CDT-161
  WARNING 04: minimum elevation drop used for Conduit CDT-163
  WARNING 04: minimum elevation drop used for Conduit CDT-165
  WARNING 04: minimum elevation drop used for Conduit CDT-169
  WARNING 03: negative offset ignored for Link CDT-17
  WARNING 04: minimum elevation drop used for Conduit CDT-171
  WARNING 04: minimum elevation drop used for Conduit CDT-173
  WARNING 04: minimum elevation drop used for Conduit CDT-175
  WARNING 04: minimum elevation drop used for Conduit CDT-177
  WARNING 04: minimum elevation drop used for Conduit CDT-179
  WARNING 03: negative offset ignored for Link CDT-201
  WARNING 04: minimum elevation drop used for Conduit CDT-225
  WARNING 03: negative offset ignored for Link CDT-227
  WARNING 04: minimum elevation drop used for Conduit CDT-23
  WARNING 04: minimum elevation drop used for Conduit CDT-237
  WARNING 04: minimum elevation drop used for Conduit CDT-239
  WARNING 03: negative offset ignored for Link CDT-241
  WARNING 04: minimum elevation drop used for Conduit CDT-245
  WARNING 03: negative offset ignored for Link CDT-269
  WARNING 04: minimum elevation drop used for Conduit CDT-269
  WARNING 03: negative offset ignored for Link CDT-27
  WARNING 04: minimum elevation drop used for Conduit CDT-27
  WARNING 04: minimum elevation drop used for Conduit CDT-33
  WARNING 04: minimum elevation drop used for Conduit CDT-343
  WARNING 04: minimum elevation drop used for Conduit CDT-35
  WARNING 04: minimum elevation drop used for Conduit CDT-357
  WARNING 04: minimum elevation drop used for Conduit CDT-361
  WARNING 04: minimum elevation drop used for Conduit CDT-365
  WARNING 04: minimum elevation drop used for Conduit CDT-367
  WARNING 04: minimum elevation drop used for Conduit CDT-369
  WARNING 04: minimum elevation drop used for Conduit CDT-371
  WARNING 04: minimum elevation drop used for Conduit CDT-373
  WARNING 04: minimum elevation drop used for Conduit CDT-375
  WARNING 04: minimum elevation drop used for Conduit CDT-377
  WARNING 04: minimum elevation drop used for Conduit CDT-383
  WARNING 04: minimum elevation drop used for Conduit CDT-385
  WARNING 04: minimum elevation drop used for Conduit CDT-387
  WARNING 04: minimum elevation drop used for Conduit CDT-389
  WARNING 04: minimum elevation drop used for Conduit CDT-39
  WARNING 04: minimum elevation drop used for Conduit CDT-391
  WARNING 04: minimum elevation drop used for Conduit CDT-393
  WARNING 03: negative offset ignored for Link CDT-397
  WARNING 04: minimum elevation drop used for Conduit CDT-401
  WARNING 04: minimum elevation drop used for Conduit CDT-41
  WARNING 04: minimum elevation drop used for Conduit CDT-411
  WARNING 03: negative offset ignored for Link CDT-425
  WARNING 03: negative offset ignored for Link CDT-427
  WARNING 03: negative offset ignored for Link CDT-43
  WARNING 04: minimum elevation drop used for Conduit CDT-43
  WARNING 03: negative offset ignored for Link CDT-445
  WARNING 03: negative offset ignored for Link CDT-449
  WARNING 03: negative offset ignored for Link CDT-467
  WARNING 03: negative offset ignored for Link CDT-473
  WARNING 03: negative offset ignored for Link CDT-477
  WARNING 03: negative offset ignored for Link CDT-479
  WARNING 03: negative offset ignored for Link CDT-483
  WARNING 03: negative offset ignored for Link CDT-487
  WARNING 03: negative offset ignored for Link CDT-489
  WARNING 03: negative offset ignored for Link CDT-491
  WARNING 03: negative offset ignored for Link CDT-491
  WARNING 03: negative offset ignored for Link CDT-493
  WARNING 03: negative offset ignored for Link CDT-495
  WARNING 03: negative offset ignored for Link CDT-497
  WARNING 03: negative offset ignored for Link CDT-499
  WARNING 03: negative offset ignored for Link CDT-521
  WARNING 03: negative offset ignored for Link CDT-525
  WARNING 03: negative offset ignored for Link CDT-531
  WARNING 03: negative offset ignored for Link CDT-561
  WARNING 03: negative offset ignored for Link CDT-57
  WARNING 04: minimum elevation drop used for Conduit CDT-63
  WARNING 03: negative offset ignored for Link CDT-711
  WARNING 03: negative offset ignored for Link CDT-711
  WARNING 03: negative offset ignored for Link CDT-713
  WARNING 03: negative offset ignored for Link CDT-717
  WARNING 03: negative offset ignored for Link CDT-719
  WARNING 03: negative offset ignored for Link CDT-721
  WARNING 03: negative offset ignored for Link CDT-725
  WARNING 03: negative offset ignored for Link CDT-725
  WARNING 03: negative offset ignored for Link CDT-727
  WARNING 03: negative offset ignored for Link CDT-727
  WARNING 03: negative offset ignored for Link CDT-729
  WARNING 03: negative offset ignored for Link CDT-733
  WARNING 03: negative offset ignored for Link CDT-733
  WARNING 03: negative offset ignored for Link CDT-735
  WARNING 03: negative offset ignored for Link CDT-737
  WARNING 03: negative offset ignored for Link CDT-747
  WARNING 03: negative offset ignored for Link CDT-751
  WARNING 03: negative offset ignored for Link CDT-753
  WARNING 03: negative offset ignored for Link CDT-765
  WARNING 03: negative offset ignored for Link CDT-771
  WARNING 03: negative offset ignored for Link CDT-775
  WARNING 03: negative offset ignored for Link CDT-779
  WARNING 03: negative offset ignored for Link CDT-779
  WARNING 03: negative offset ignored for Link CDT-781
  WARNING 03: negative offset ignored for Link CDT-783
  WARNING 03: negative offset ignored for Link CDT-789
  WARNING 03: negative offset ignored for Link CDT-789
  WARNING 04: minimum elevation drop used for Conduit CDT-79
  WARNING 04: minimum elevation drop used for Conduit CDT-799
  WARNING 03: negative offset ignored for Link CDT-801
  WARNING 04: minimum elevation drop used for Conduit CDT-805
  WARNING 03: negative offset ignored for Link CDT-807
  WARNING 03: negative offset ignored for Link CDT-813
  WARNING 03: negative offset ignored for Link CDT-813
  WARNING 03: negative offset ignored for Link CDT-83
  WARNING 08: elevation drop exceeds length for Conduit CDT-83
  WARNING 04: minimum elevation drop used for Conduit CDT-85
  WARNING 03: negative offset ignored for Link CDT-89
  WARNING 04: minimum elevation drop used for Conduit CDT-93
  WARNING 04: minimum elevation drop used for Conduit CDT-95
  WARNING 03: negative offset ignored for Link CDT-959
  WARNING 08: elevation drop exceeds length for Conduit CDT-963
  WARNING 08: elevation drop exceeds length for Conduit CDT-965
  WARNING 03: negative offset ignored for Link CDT-969
  WARNING 04: minimum elevation drop used for Conduit CDT-97
  WARNING 03: negative offset ignored for Link CDT-971
  WARNING 03: negative offset ignored for Link CDT-979
  WARNING 03: negative offset ignored for Link CDT-979
  WARNING 04: minimum elevation drop used for Conduit CDT-983
  WARNING 03: negative offset ignored for Link CDT-985
  WARNING 04: minimum elevation drop used for Conduit CDT-987
  WARNING 03: negative offset ignored for Link CDT-989
  WARNING 04: minimum elevation drop used for Conduit CDT-99
  WARNING 03: negative offset ignored for Link CDT-991
  WARNING 04: minimum elevation drop used for Conduit CDT-993
  WARNING 04: minimum elevation drop used for Conduit CDT-995
  WARNING 04: minimum elevation drop used for Conduit CDT-997
  WARNING 03: negative offset ignored for Link CDT-999
  WARNING 02: maximum depth increased for Node 4226
  WARNING 02: maximum depth increased for Node 5803
  WARNING 02: maximum depth increased for Node 6848
  WARNING 02: maximum depth increased for Node 8236
  WARNING 02: maximum depth increased for Node 8591
  WARNING 02: maximum depth increased for Node 8674
  WARNING 02: maximum depth increased for Node JCT-1004
  WARNING 02: maximum depth increased for Node JCT-1032
  WARNING 02: maximum depth increased for Node JCT-1036
  WARNING 02: maximum depth increased for Node JCT-1046
  WARNING 02: maximum depth increased for Node JCT-1056
  WARNING 02: maximum depth increased for Node JCT-1064
  WARNING 02: maximum depth increased for Node JCT-1066
  WARNING 02: maximum depth increased for Node JCT-1068
  WARNING 02: maximum depth increased for Node JCT-1072
  WARNING 02: maximum depth increased for Node JCT-1074
  WARNING 02: maximum depth increased for Node JCT-1078
  WARNING 02: maximum depth increased for Node JCT-1084
  WARNING 02: maximum depth increased for Node JCT-1092
  WARNING 02: maximum depth increased for Node JCT-1106
  WARNING 02: maximum depth increased for Node JCT-1126
  WARNING 02: maximum depth increased for Node JCT-1152
  WARNING 02: maximum depth increased for Node JCT-1174
  WARNING 02: maximum depth increased for Node JCT-1176
  WARNING 02: maximum depth increased for Node JCT-1178
  WARNING 02: maximum depth increased for Node JCT-1182
  WARNING 02: maximum depth increased for Node JCT-1188
  WARNING 02: maximum depth increased for Node JCT-1196
  WARNING 02: maximum depth increased for Node JCT-1204
  WARNING 02: maximum depth increased for Node JCT-1226
  WARNING 02: maximum depth increased for Node JCT-1228
  WARNING 02: maximum depth increased for Node JCT-1236
  WARNING 02: maximum depth increased for Node JCT-1242
  WARNING 02: maximum depth increased for Node JCT-130
  WARNING 02: maximum depth increased for Node JCT-1308
  WARNING 02: maximum depth increased for Node JCT-1310
  WARNING 02: maximum depth increased for Node JCT-1316
  WARNING 02: maximum depth increased for Node JCT-1336
  WARNING 02: maximum depth increased for Node JCT-1338
  WARNING 02: maximum depth increased for Node JCT-1350
  WARNING 02: maximum depth increased for Node JCT-1358
  WARNING 02: maximum depth increased for Node JCT-1376
  WARNING 02: maximum depth increased for Node JCT-1378
  WARNING 02: maximum depth increased for Node JCT-138
  WARNING 02: maximum depth increased for Node JCT-1394
  WARNING 02: maximum depth increased for Node JCT-140
  WARNING 02: maximum depth increased for Node JCT-1404
  WARNING 02: maximum depth increased for Node JCT-1408
  WARNING 02: maximum depth increased for Node JCT-1418
  WARNING 02: maximum depth increased for Node JCT-142
  WARNING 02: maximum depth increased for Node JCT-1420
  WARNING 02: maximum depth increased for Node JCT-1436
  WARNING 02: maximum depth increased for Node JCT-1442
  WARNING 02: maximum depth increased for Node JCT-1450
  WARNING 02: maximum depth increased for Node JCT-1452
  WARNING 02: maximum depth increased for Node JCT-1462
  WARNING 02: maximum depth increased for Node JCT-1464
  WARNING 02: maximum depth increased for Node JCT-1488
  WARNING 02: maximum depth increased for Node JCT-1772
  WARNING 02: maximum depth increased for Node JCT-1862
  WARNING 02: maximum depth increased for Node JCT-1888
  WARNING 02: maximum depth increased for Node JCT-1900
  WARNING 02: maximum depth increased for Node JCT-1914
  WARNING 02: maximum depth increased for Node JCT-1928
  WARNING 02: maximum depth increased for Node JCT-1936
  WARNING 02: maximum depth increased for Node JCT-2326
  WARNING 02: maximum depth increased for Node JCT-2930
  WARNING 02: maximum depth increased for Node JCT-2952
  WARNING 02: maximum depth increased for Node JCT-3116
  WARNING 02: maximum depth increased for Node JCT-38
  WARNING 02: maximum depth increased for Node JCT-4588
  WARNING 02: maximum depth increased for Node JCT-4590
  WARNING 02: maximum depth increased for Node JCT-4678
  WARNING 02: maximum depth increased for Node JCT-4762
  WARNING 02: maximum depth increased for Node JCT-4806
  WARNING 02: maximum depth increased for Node JCT-4966
  WARNING 02: maximum depth increased for Node JCT-5066
  WARNING 02: maximum depth increased for Node JCT-5068
  WARNING 02: maximum depth increased for Node JCT-5236
  WARNING 02: maximum depth increased for Node JCT-5244
  WARNING 02: maximum depth increased for Node JCT-5248
  WARNING 02: maximum depth increased for Node JCT-5252
  WARNING 02: maximum depth increased for Node JCT-5276
  WARNING 02: maximum depth increased for Node JCT-5306
  WARNING 02: maximum depth increased for Node JCT-5312
  WARNING 02: maximum depth increased for Node JCT-5318
  WARNING 02: maximum depth increased for Node JCT-5326
  WARNING 02: maximum depth increased for Node JCT-5328
  WARNING 02: maximum depth increased for Node JCT-5354
  WARNING 02: maximum depth increased for Node JCT-5380
  WARNING 02: maximum depth increased for Node JCT-5382
  WARNING 02: maximum depth increased for Node JCT-5398
  WARNING 02: maximum depth increased for Node JCT-5400
  WARNING 02: maximum depth increased for Node JCT-5412
  WARNING 02: maximum depth increased for Node JCT-5414
  WARNING 02: maximum depth increased for Node JCT-5416
  WARNING 02: maximum depth increased for Node JCT-5424
  WARNING 02: maximum depth increased for Node JCT-5426
  WARNING 02: maximum depth increased for Node JCT-5428
  WARNING 02: maximum depth increased for Node JCT-5430
  WARNING 02: maximum depth increased for Node JCT-5432
  WARNING 02: maximum depth increased for Node JCT-5436
  WARNING 02: maximum depth increased for Node JCT-5438
  WARNING 02: maximum depth increased for Node JCT-5442
  WARNING 02: maximum depth increased for Node JCT-5444
  WARNING 02: maximum depth increased for Node JCT-5446
  WARNING 02: maximum depth increased for Node JCT-5452
  WARNING 02: maximum depth increased for Node JCT-5454
  WARNING 02: maximum depth increased for Node JCT-5460
  WARNING 02: maximum depth increased for Node JCT-5462
  WARNING 02: maximum depth increased for Node JCT-5464
  WARNING 02: maximum depth increased for Node JCT-5470
  WARNING 02: maximum depth increased for Node JCT-5472
  WARNING 02: maximum depth increased for Node JCT-5474
  WARNING 02: maximum depth increased for Node JCT-5476
  WARNING 02: maximum depth increased for Node JCT-58
  WARNING 02: maximum depth increased for Node JCT-6028
  WARNING 02: maximum depth increased for Node JCT-6030
  WARNING 02: maximum depth increased for Node JCT-6032
  WARNING 02: maximum depth increased for Node JCT-6040
  WARNING 02: maximum depth increased for Node JCT-6042
  WARNING 02: maximum depth increased for Node JCT-6044
  WARNING 02: maximum depth increased for Node JCT-606
  WARNING 02: maximum depth increased for Node JCT-6064
  WARNING 02: maximum depth increased for Node JCT-6066
  WARNING 02: maximum depth increased for Node JCT-6068
  WARNING 02: maximum depth increased for Node JCT-6070
  WARNING 02: maximum depth increased for Node JCT-6072
  WARNING 02: maximum depth increased for Node JCT-6082
  WARNING 02: maximum depth increased for Node JCT-6086
  WARNING 02: maximum depth increased for Node JCT-6088
  WARNING 02: maximum depth increased for Node JCT-6112
  WARNING 02: maximum depth increased for Node JCT-6118
  WARNING 02: maximum depth increased for Node JCT-6120
  WARNING 02: maximum depth increased for Node JCT-6126
  WARNING 02: maximum depth increased for Node JCT-6134
  WARNING 02: maximum depth increased for Node JCT-6140
  WARNING 02: maximum depth increased for Node JCT-6142
  WARNING 02: maximum depth increased for Node JCT-6144
  WARNING 02: maximum depth increased for Node JCT-6148
  WARNING 02: maximum depth increased for Node JCT-6208
  WARNING 02: maximum depth increased for Node JCT-6218
  WARNING 02: maximum depth increased for Node JCT-632
  WARNING 02: maximum depth increased for Node JCT-646
  WARNING 02: maximum depth increased for Node JCT-660
  WARNING 02: maximum depth increased for Node JCT-688
  WARNING 02: maximum depth increased for Node JCT-692
  WARNING 02: maximum depth increased for Node JCT-694
  WARNING 02: maximum depth increased for Node JCT-698
  WARNING 02: maximum depth increased for Node JCT-700
  WARNING 02: maximum depth increased for Node JCT-706
  WARNING 02: maximum depth increased for Node JCT-780
  WARNING 02: maximum depth increased for Node JCT-796
  WARNING 02: maximum depth increased for Node JCT-798
  WARNING 02: maximum depth increased for Node JCT-802
  WARNING 02: maximum depth increased for Node JCT-804
  WARNING 02: maximum depth increased for Node JCT-806
  WARNING 02: maximum depth increased for Node JCT-856
  WARNING 02: maximum depth increased for Node JCT-862
  WARNING 02: maximum depth increased for Node JCT-886
  WARNING 02: maximum depth increased for Node JCT-888
  WARNING 02: maximum depth increased for Node JCT-896
  WARNING 02: maximum depth increased for Node JCT-900
  WARNING 02: maximum depth increased for Node JCT-902
  WARNING 02: maximum depth increased for Node JCT-922
  WARNING 02: maximum depth increased for Node JCT-926
  WARNING 02: maximum depth increased for Node JCT-932
  WARNING 02: maximum depth increased for Node JCT-944
  WARNING 02: maximum depth increased for Node JCT-946
  WARNING 02: maximum depth increased for Node JCT-948
  WARNING 02: maximum depth increased for Node JCT-960
  WARNING 02: maximum depth increased for Node JCT-998
  
  ****************
  Analysis Options
  ****************
  Flow Units ............... GPM
  Process Models:
    Rainfall/Runoff ........ NO
    RDII ................... NO
    Snowmelt ............... NO
    Groundwater ............ NO
    Flow Routing ........... YES
    Ponding Allowed ........ YES
    Water Quality .......... NO
  Flow Routing Method ...... DYNWAVE
  Surcharge Method ......... EXTRAN
  Starting Date ............ 01/01/2002 00:00:00
  Ending Date .............. 01/02/2002 00:00:00
  Antecedent Dry Days ...... 5.0
  Report Time Step ......... 00:02:00
  Routing Time Step ........ 5.00 sec
  Variable Time Step ....... YES
  Maximum Trials ........... 4
  Number of Threads ........ 1
  Head Tolerance ........... 0.005000 ft
  
  
  **************************        Volume        Volume
  Flow Routing Continuity        acre-feet      10^6 gal
  **************************     ---------     ---------
  Dry Weather Inflow .......         0.000         0.000
  Wet Weather Inflow .......         0.000         0.000
  Groundwater Inflow .......         0.000         0.000
  RDII Inflow ..............         0.000         0.000
  External Inflow ..........        23.550         7.674
  External Outflow .........        13.718         4.470
  Flooding Loss ............         0.280         0.091
  Evaporation Loss .........         0.000         0.000
  Exfiltration Loss ........         0.000         0.000
  Initial Stored Volume ....         0.000         0.000
  Final Stored Volume ......         7.472         2.435
  Continuity Error (%) .....         8.837
  
  
  *************************
  Highest Continuity Errors
  *************************
  Node JCT-6096 (-128.61%)
  Node JCT-38 (-121.21%)
  Node 6227 (90.52%)
  Node 6223 (90.26%)
  Node JCT-1902 (-63.25%)
  
  
  ***************************
  Time-Step Critical Elements
  ***************************
  Link CDT-997 (15.59%)
  Link CDT-123 (14.91%)
  Link CDT-357 (9.24%)
  Link CDT-1173 (4.37%)
  Link 127 (4.20%)
  
  
  ********************************
  Highest Flow Instability Indexes
  ********************************
  Link CDT-181 (72)
  Link 3195 (64)
  Link CDT-1283 (61)
  Link 2122 (58)
  Link 4184 (57)
  
  
  *********************************
  Most Frequent Nonconverging Nodes
  *********************************
  Node OFALL-18 (99.82%)
  Node OFALL-20 (99.82%)
  Node OFALL-28 (99.82%)
  Node OFALL-38 (99.82%)
  Node WWTPOUTFALL (99.82%)
  
  
  *************************
  Routing Time Step Summary
  *************************
  Minimum Time Step           :     0.03 sec
  Average Time Step           :     2.84 sec
  Maximum Time Step           :     5.00 sec
  % of Time in Steady State   :     0.00
  Average Iterations per Step :     4.00
  % of Steps Not Converging   :    99.82
  Time Step Frequencies       :
      5.000 -  0.910 sec      :    92.36 %
      0.910 -  0.166 sec      :     7.61 %
      0.166 -  0.030 sec      :     0.04 %
      0.030 -  0.005 sec      :     0.00 %
      0.005 -  0.001 sec      :     0.00 %
  
  
  ******************
  Node Depth Summary
  ******************
  
  ---------------------------------------------------------------------------------
                                 Average  Maximum  Maximum  Time of Max    Reported
                                   Depth    Depth      HGL   Occurrence   Max Depth
  Node                 Type         Feet     Feet     Feet  days hr:min        Feet
  ---------------------------------------------------------------------------------
  0                    JUNCTION     0.04     0.04     0.72     0  15:49        0.04
  100                  JUNCTION     0.03     0.04     1.75     0  21:00        0.04
  101                  JUNCTION     0.02     0.03     3.36     0  21:00        0.03
  103                  JUNCTION     0.02     0.03     4.17     0  21:00        0.03
  104                  JUNCTION     0.07     0.08     0.17     0  21:00        0.08
  105                  JUNCTION     0.02     0.03     3.91     0  21:00        0.03
  106                  JUNCTION     0.02     0.02     5.63     0  21:00        0.02
  107                  JUNCTION     0.03     0.04     2.28     0  21:00        0.04
  108                  JUNCTION     0.03     0.03     3.82     0  21:00        0.03
  1082                 JUNCTION     0.03     0.04     3.32     0  21:00        0.04
  1083                 JUNCTION     0.03     0.03     3.81     0  21:00        0.03
  1084                 JUNCTION     0.03     0.03     3.05     0  21:00        0.03
  1085                 JUNCTION     0.03     0.03     3.93     0  21:00        0.03
  1086                 JUNCTION     0.05     0.06    -0.29     0  21:00        0.06
  1087                 JUNCTION     0.05     0.06     1.02     0  21:00        0.06
  1088                 JUNCTION     0.04     0.05     2.28     0  21:00        0.05
  1089                 JUNCTION     0.05     0.06     1.61     0  21:00        0.06
  109                  JUNCTION     0.06     0.07     0.81     0  21:00        0.07
  1090                 JUNCTION     0.05     0.06    -0.04     0  20:38        0.06
  1091                 JUNCTION     0.05     0.06     3.20     0  21:00        0.06
  1092                 JUNCTION     0.04     0.05     3.36     0  21:00        0.05
  1093                 JUNCTION     0.06     0.07     2.50     0  21:00        0.07
  1094                 JUNCTION     0.08     0.09     0.89     0  21:00        0.09
  1095                 JUNCTION     0.07     0.09     1.35     0  21:00        0.09
  1096                 JUNCTION     0.03     0.03     3.04     0  21:00        0.03
  1097                 JUNCTION     0.04     0.04     2.30     0  21:00        0.04
  1098                 JUNCTION     0.41     1.06    -1.41     0  11:13        1.05
  1099                 JUNCTION     0.04     0.05     2.32     0  21:00        0.05
  1100                 JUNCTION     0.05     0.06     0.97     0  21:00        0.06
  1101                 JUNCTION     0.05     0.06     0.31     0  21:00        0.06
  1102                 JUNCTION     1.13     1.96    -1.42     0  20:43        1.96
  1103                 JUNCTION     0.04     0.05     2.07     0  21:00        0.05
  1104                 JUNCTION     0.03     0.03     3.11     0  21:00        0.03
  1106                 JUNCTION     0.03     0.03     2.33     0  21:00        0.03
  1107                 JUNCTION     0.04     0.05     1.77     0  21:00        0.05
  1108                 JUNCTION     0.06     0.07     1.60     0  21:00        0.07
  1109                 JUNCTION     0.29     0.64     3.64     0  20:59        0.64
  111                  JUNCTION     0.26     0.43    -2.72     0  20:15        0.43
  1110                 JUNCTION     0.03     0.03     3.03     0  21:00        0.03
  1112                 JUNCTION     0.12     0.15    -5.71     0  21:00        0.15
  1115                 JUNCTION     0.03     0.03     4.32     0  21:00        0.03
  1116                 JUNCTION     0.10     0.13    -1.94     0  21:00        0.13
  1117                 JUNCTION     0.10     0.12    -1.09     0  21:00        0.12
  1118                 JUNCTION     0.09     0.12    -0.20     0  21:00        0.12
  1119                 JUNCTION     0.09     0.11    -0.03     0  21:00        0.11
  1120                 JUNCTION     0.08     0.10     0.15     0  21:00        0.10
  1121                 JUNCTION     0.06     0.07     1.88     0  21:00        0.07
  1122                 JUNCTION     0.04     0.04     2.94     0  21:00        0.04
  1123                 JUNCTION     0.04     0.05     1.53     0  21:00        0.05
  1124                 JUNCTION     0.05     0.06     1.26     0  21:00        0.06
  1125                 JUNCTION     0.09     0.11     0.54     0  21:00        0.11
  1126                 JUNCTION     0.11     0.13    -2.75     0  21:00        0.13
  1127                 JUNCTION     0.11     0.14    -3.49     0  21:00        0.14
  1128                 JUNCTION     0.12     0.15    -4.04     0  21:00        0.15
  1129                 JUNCTION     0.12     0.14    -4.28     0  21:00        0.14
  1130                 JUNCTION     0.12     0.15    -5.27     0  21:00        0.15
  1131                 JUNCTION     0.13     0.15    -6.49     0  21:00        0.15
  1132                 JUNCTION     0.13     0.16    -6.77     0  21:00        0.16
[...]
  CDT-799                     0.01      4.02      0.01     21.74         0.01
  CDT-801                     3.09      3.09     22.80      0.01         0.01
  CDT-803                    21.11     21.14     22.86      0.02         0.01
  CDT-805                     3.71      4.01     16.50     21.52         0.67
  CDT-807                    18.85     18.94     23.44      0.01         0.04
  CDT-809                     5.71      6.04     16.50      1.53         1.56
  CDT-81                      9.23      9.23     23.94      0.01         0.01
  CDT-811                     0.01      0.01     21.89      0.01         0.01
  CDT-813                     3.00      3.01     22.72      0.01         0.01
  CDT-815                     0.01      0.01     22.27      0.01         0.01
  CDT-83                     16.41     16.46     23.69      0.01         0.15
  CDT-843                     0.01      0.01      6.23      0.01         0.01
  CDT-85                     21.98     21.99     22.02      5.59         9.51
  CDT-87                      0.01      0.01      6.98      0.01         0.01
  CDT-89                      0.01      0.01     23.92      0.01         0.01
  CDT-891                    10.12     10.12     23.13      0.01         0.01
  CDT-895                    14.18     14.18     16.11      0.01         0.01
  CDT-905                     0.01      0.01      0.26      0.01         0.01
  CDT-907                     0.26      0.26     23.19      0.01         0.01
  CDT-91                     22.88     22.88     23.89      0.01         0.01
  CDT-913                     0.01      0.01      5.25      0.01         0.01
  CDT-93                     15.64     15.65     15.98     16.55         9.95
  CDT-95                     17.14     17.14     17.14     12.37         9.64
  CDT-957                     0.01      0.01     22.74      0.01         0.01
  CDT-961                    23.10     23.11     23.12      0.01         0.01
  CDT-963                     0.45      0.45     21.34      0.01         0.01
  CDT-965                     0.73      0.73     22.28      0.01         0.01
  CDT-97                     17.14     17.14     17.14     15.48        10.76
  CDT-973                     0.01      0.01     22.19      1.73         0.01
  CDT-975                    19.25     19.70     21.00      4.53         0.20
  CDT-977                    20.51     20.64     22.49      3.65         0.01
  CDT-979                    21.42     22.02     21.64      4.12         0.70
  CDT-981                     9.42      9.56     20.75      3.53         0.01
  CDT-983                     0.01      1.64      0.01     20.83         0.01
  CDT-985                    20.15     20.15     21.51      0.04         0.07
  CDT-987                    13.50     15.57     14.92     18.07         8.24
  CDT-989                     0.01      0.01     21.22      0.97         0.01
  CDT-99                     17.39     17.39     17.68     19.13        14.39
  CDT-991                    18.84     18.95     20.11      1.18         0.91
  CDT-993                    12.27     14.92     13.30     17.28         8.19
  CDT-995                     9.18     13.30      9.85     15.96         6.49
  CDT-997                     8.43      9.85      8.95      9.50         4.61
  CDT-999                    17.43     17.43     19.02      0.15         0.01
  
  
  ***************
  Pumping Summary
  ***************
  
  ---------------------------------------------------------------------------------------------------------
                                                  Min       Avg       Max     Total     Power    % Time Off
                        Percent   Number of      Flow      Flow      Flow    Volume     Usage    Pump Curve
  Pump                 Utilized   Start-Ups       GPM       GPM       GPM  10^6 gal     Kw-hr    Low   High
  ---------------------------------------------------------------------------------------------------------
  11-1PUMP                18.52         162      0.00    895.23   1100.00     0.239     39.13    0.0    0.9
  11-2PUMP                18.51          77      0.00    414.51    500.00     0.110      6.26    0.0    0.1
  12-1PUMP                 9.45          74      0.00    471.91    690.00     0.064      5.10    0.0    0.1
  13-1PUMP                61.70          75      0.00   1190.92   1250.00     1.057    144.53    0.0   22.8
  13-2PUMP                 2.72          42      0.00    746.07    750.00     0.029      2.42    0.0   94.0
  13-3PUMP                15.25         241      0.00    896.69    900.00     0.197     16.82    0.0   97.7
  13-4PUMP                11.31          49      0.00    221.56    246.33     0.036      1.96    0.0    0.0
  13-5PUMP                15.49          27      0.00    163.58    355.03     0.037      2.28    0.0    0.0
  14-1PUMP                22.33          19      0.00    350.10    389.88     0.113      4.16    0.0    0.0
  14-2PUMP                 9.42           8      0.00    147.54    466.42     0.020      1.86    0.0    0.1
  16-1PUMP                 3.22          46      0.00    450.00    450.00     0.021      0.07    0.0  100.0
  19-1PUMP                32.58         119      0.00    564.63    900.00     0.262     37.12    0.0    3.2
  20-1PUMP                40.95          84      0.00    779.07   1500.00     0.460    169.18    0.0    2.0
  20-2PUMP                22.15          73      0.00    205.63    500.27     0.066     13.26    0.0    0.0
  20-3PUMP                 6.66          23      0.00    195.68    500.00     0.019      1.76    0.0    0.6
  21-1PUMP                37.87         174      0.00    156.35    500.00     0.085     11.19    0.0    0.4
  22-1PUMP                18.06          68      0.00    250.45    600.00     0.065     17.12    0.0    0.3
  22-2PUMP                27.55         203      0.00    337.38    500.00     0.134     12.31    0.0    0.4
  22-3PUMP                21.73          84      0.00    221.79    450.00     0.069      3.76    0.0    0.1
  22-4PUMP                32.91          70      0.00    143.56    450.00     0.068      4.52    0.0    0.0
  23-1PUMP                26.03          80      0.00    253.23    500.00     0.097     10.09    0.0    4.4
  24-1PUMP                64.78          78      0.00    295.30    500.00     0.275     21.53    0.0    0.0
  24-2PUMP                37.79          91      0.00   1420.82   1500.00     0.773    141.31    0.0   41.2
  24-2_3152                0.00           0      0.00      0.00      0.00     0.000      0.00    0.0    0.0
  27-1PUMP                25.98          83      0.00    129.91    450.00     0.048      3.32    0.0    1.6
  29-2PUMP                27.33         109      0.00    160.73    500.00     0.064      8.23    0.0    0.6
  29_1PUMP                 9.80         125      0.00    826.68   1000.00     0.117     15.17    0.0   17.6
  30-1PUMP                10.63         153      0.00    748.21    810.00     0.115      8.01    0.0   43.2
  32-1PUMP                 9.58          28      0.00    404.83    500.00     0.056      3.26    0.0    0.4
  32-2PUMP                20.68          87      0.00   1428.18   1500.00     0.425     66.69    0.0   58.2
  32-3PUMP                15.77          45      0.00    178.56    500.00     0.042      4.95    0.0    3.4
  33-1PUMP                 4.27          46      0.00    334.90    471.00     0.021      4.68    0.0   30.4
  34-2PUMP                 7.98          71      0.00    375.50    500.00     0.043      2.47    0.0   44.9
  34-3PUMP                 9.06          78      0.00    357.12    500.00     0.047      2.94    0.0    4.2
  34-4PUMP                19.82          73      0.00    215.39    500.00     0.062      7.02    0.0    2.3
  35-1PUMP                 6.21         109      0.00   1039.64   1100.00     0.093     10.94    0.0   44.4
  35-2PUMP                28.06         141      0.00    369.32   1100.00     0.151     41.51    0.0    3.5
  35-3PUMP                16.14         154      0.00    590.96   1100.00     0.143     32.91    0.0    0.1
  35-4PUMP                13.44         194      0.00    925.92   1100.00     0.182     26.50    0.0   18.8
  37-1PUMP                 6.45         114      0.00    910.70   1100.00     0.085     13.54    0.0    5.2
  37-2PUMP                18.29         219      0.00    446.06   1100.00     0.121     31.58    0.0    2.6
  37-3PUMP                16.52         101      0.00    395.30   1100.00     0.095     26.35    0.0    0.9
  39-1PUMP                32.02          87      0.00    656.73    810.00     0.302     32.39    0.0    0.0
  4-1PUMP                 45.42          22      0.00    392.05    424.47     0.256      8.03    0.0    0.0
  4-2PUMP                 51.45          73      0.00    369.04    805.09     0.273     30.80    0.0    0.0
  4-3PUMP                 41.72          44      0.00    272.98    690.00     0.165     18.08    0.0    0.0
  57-1PUMP                17.26          37      0.00     54.29     55.00     0.013      0.59    0.0   83.2
  57-2PUMP                24.28         122      0.00    121.74    450.00     0.042      3.01    0.0    0.3
  57-3PUMP                17.78          41      0.00    202.35    500.00     0.052      4.72    0.0    2.2
  57-4PUMP                26.93         114      0.00    998.12   1650.00     0.382     56.84    0.0    4.1
  58-1PUMP                47.51          85      0.00    445.97    500.00     0.305     22.14    0.0    0.1
  58-2PUMP                50.30          36      0.00    354.64    355.10     0.257     29.10    0.0   99.7
  59-1PUMP                13.24         984      0.00    194.94    355.10     0.038      7.39    0.0   25.9
  59-2PUMP                33.12          40      0.00     68.38    500.00     0.033      8.44    0.0   83.9
  60-1PUMP                 8.95          44      0.00    147.55    355.10     0.020      2.95    0.0   16.3
  60-2PUMP                18.74         102      0.00    204.62   1100.00     0.056     18.78    0.0   58.6
  63-1PUMP                29.58          40      0.00    149.67    500.00     0.062      6.40    0.0   40.4
  63-2PUMP                16.06          68      0.00    240.22    500.00     0.054      5.24    0.0   22.0
  64-1PUMP                 9.78          22      0.00    178.12    500.00     0.024      2.62    0.0   63.2
  65-1PUMP                15.79          30      0.00    174.79    450.00     0.039      2.11    0.0    0.5
  65-2PUMP                22.63         348      0.00    367.27    600.00     0.118     19.24    0.0   62.9
  9-1PUMP                 43.75          66      0.00    285.50    500.00     0.180     17.28    0.0   16.0
  A1APUMP                  0.50           5      0.00    581.36    966.28     0.004      1.07    0.0    0.0
  AA12PUMP                 0.57           1      0.00    450.00    450.00     0.004      0.06    0.0  100.0
  AA5PUMP                 11.92           6      0.00    450.00    450.00     0.077      1.10    0.0  100.0
  AA8PUMP                  8.00          11      0.00    450.00    450.00     0.052      0.92    0.0  100.0
  AG13PUMP                 2.32          11      0.00    395.42    435.73     0.013      0.41    0.0    0.0
  AG5APUMP                 3.69          11      0.00    449.95    450.00     0.024      0.45    0.0   99.4
  AIRPORTPUMP             25.87          80      0.00    233.09    500.00     0.086      7.02    0.0   12.1
  AQ-3PUMP                 1.04          12      0.00    450.00    450.00     0.007      0.09    0.0  100.0
  AU5PUMP                  2.19          14      0.00    450.00    450.00     0.014      0.16    0.0  100.0
  BB13PUMP                15.86         160      0.00    850.00    850.00     0.194      7.40    0.0  100.0
  BB18PUMP                13.51         259      0.00    848.82    850.00     0.165      7.35    0.0   80.1
  BB1PUMP                  0.00           0      0.00      0.00      0.00     0.000      0.00    0.0    0.0
  BB26PUMP                16.97          31      0.00    680.97    690.00     0.167      5.47    0.0   12.0
  BL-8PUMP                 0.00           0      0.00      0.00      0.00     0.000      0.00    0.0    0.0
  BMPUMP                   5.79          42      0.00    254.59    810.00     0.021      4.48    0.0    0.2
  BP100PUMP                0.58          12      0.00    664.56    810.00     0.006      0.54    0.0    9.1
  BV-18PUMP                8.80          85      0.00    331.54    362.61     0.042      1.65    0.0    0.0
  CB1PUMP                  2.03          16      0.00    428.27    680.90     0.013      1.05    0.0    0.0
  CL-1PUMP                60.80          50      0.00    303.35    780.00     0.264     48.82    0.0    0.3
  CP1PUMP                 15.65          52      0.00    364.03    590.00     0.081      8.53    0.0    1.6
  FD2PUMP                  2.44           6      0.00    495.83    500.00     0.017      0.66    0.0   98.2
  FF11APUMP               38.14         117      0.00    496.61    500.00     0.273      8.60    0.0   97.9
  FF11PUMP                 8.12          31      0.00    312.97    450.00     0.037      1.51    0.0    0.5
  FF21PUMP                18.39         101      0.00    482.87    500.00     0.128      5.54    0.0   25.5
  FF29PUMP                 6.71          29      0.00    396.16    450.00     0.038      1.15    0.0    0.5
  FP1PUMP                  0.98           5      0.00    236.62    277.05     0.003      0.25    0.0    2.6
  GG-7APUMP               14.17         146      0.00    384.20    500.00     0.078      3.46    0.0    0.0
  GH-6PUMP                16.61         145      0.00    337.73    500.00     0.081      5.04    0.0    0.1
  GJ-5APUMP               12.12          42      0.00    293.56    450.00     0.051      2.27    0.0    0.1
  GL1PUMP                  3.64          34      0.00    527.34    590.00     0.028      1.97    0.0    0.8
  GR-11PUMP                3.72          17      0.00    140.05    500.00     0.008      0.67    0.0    0.5
  GR10PUMP                 5.78          17      0.00     90.35    500.00     0.008      0.70    0.0    0.9
  GR1PUMP                  6.62          46      0.00    437.52    810.00     0.042      6.23    0.0    1.7
  GR2PUMP                  7.35          33      0.00    162.67    500.00     0.017      1.69    0.0    1.6
  GR3PUMP                 21.25         166      0.00    562.36   1650.00     0.173     37.38    0.0    1.0
  GR4PUMP                 14.77          29      0.00    365.51    810.00     0.078     14.24    0.0    0.4
  GR5PUMP                  4.40          22      0.00    458.17    800.00     0.028      5.79    0.0    3.8
  GR6PUMP                  5.72          17      0.00     92.45    450.00     0.008      0.57    0.0    1.6
  GR7PUMP                 14.19          64      0.00    155.84    500.00     0.032      4.13    0.0    1.0
  GR8PUMP                 18.53          68      0.00    134.26    590.00     0.036      6.22    0.0    3.2
  GR9PUMP                  5.08          43      0.00    276.85    810.00     0.020      4.19    0.0    0.3
  HH2                     15.80          42      0.00     12.17     14.90     0.003      0.25    0.0    0.1
  HIDDNEHAMMOCK           15.80          42      0.00     12.17     14.90     0.003      0.25    0.0    0.1
  HS_PUMP                  3.54          27      0.00    661.92    900.00     0.034      5.90    0.0   27.8
  IP1PUMP                 12.01          20      0.00    164.79    450.00     0.029      1.72    0.0    1.9
  IP2PUMP                  4.25          17      0.00    333.00    450.00     0.020      0.80    0.0    0.4
  JW2                     61.71          45      0.00     12.76     14.75     0.011      0.79    0.0    0.0
  MATPUMP                  0.00           0      0.00      0.00      0.00     0.000      0.00    0.0    0.0
  MG_PUMP                  2.31          34      0.00    822.57   1100.00     0.027      3.97    0.0   30.0
  NP1PUMP                  0.37           3      0.00    240.65    267.05     0.001      0.14    0.0    0.0
  OK-3PUMP                 1.72          36      0.00    667.91    810.00     0.017      1.64    0.0    1.4
  OK-6PUMP                 2.06          17      0.00    266.70    600.00     0.007      1.26    0.0    3.8
  OK1PUMP                  3.07          20      0.00    307.61    500.00     0.014      0.88    0.0    0.3
  OK2PUMP                  0.00           0      0.00      0.00      0.00     0.000      0.00    0.0    0.0
  OK5PUMP                  3.18          20      0.00    343.31    795.41     0.016      3.11    0.0    0.0
  OKRP2                    0.00           0      0.00      0.00      0.00     0.000      0.00    0.0    0.0
  OKR_JOCK                24.73         211      0.00   1258.69   1400.00     0.449     85.78    0.0   14.6
  PCPMASTERPUMP            0.86           7      0.00   1478.03   1500.00     0.018      2.60    0.0   79.0
  PEPPUMP002              15.70          51      0.00     30.84     45.00     0.007      0.54    0.0    1.6
  PEPPUMP003              16.00          57      0.00     30.13     45.00     0.007      0.54    0.0    0.6
  PEPPUMP004              17.90         271      0.00     26.96     45.00     0.007      0.58    0.0    1.6
  PEP_PUMP                15.27          97      0.00     31.53     45.00     0.007      0.52    0.0    0.3
  PL-1PUMP                 0.00           0      0.00      0.00      0.00     0.000      0.00    0.0    0.0
  PL-2PUMP                19.39         102      0.00    205.76    810.00     0.057     12.07    0.0    2.0
  PL-3PUMP                 9.29          27      0.00     92.17    500.00     0.013      1.23    0.0    0.7
  PL-4PUMP                 3.48          42      0.00    173.22    355.10     0.008      1.63    0.0    5.5
  PL-5PUMP                14.83          42      0.00    101.45    500.00     0.022      2.93    0.0    3.8
  PL-6PUMP                 1.22          31      0.00    844.62   1100.00     0.014      1.65    0.0   48.6
  PS-APUMP                19.80           6      0.00    300.60    678.84     0.086     16.28    0.0    0.0
  PS-BPUMP                53.99          38      0.00    703.46   1100.00     0.546    119.17    0.0    0.5
  PS-EPUMP                68.78          36      0.00    464.00    690.00     0.461     36.56    0.0    0.1
  PS-GPUMP                26.36         192      0.00    545.48    700.00     0.207     26.82    0.0   11.2
  PSCPUMP                 10.63          10      0.00    377.66    675.86     0.058      7.83    0.0    0.0
  PSDPUMP                 74.85          30      0.00    441.20    780.00     0.475     73.38    0.0    0.8
  PUMP-21                  1.29          40      0.00   1028.65   1650.00     0.019      2.68    0.0    9.2
  PUMP26-1                12.53          56      0.00    420.97    810.00     0.077     11.81    0.0    7.0
  PUMP28-1                 7.91         111      0.00    415.73    810.00     0.043      6.81    0.0    6.2
  PUMP34-1                26.27         167      0.00    974.31   1100.00     0.370     48.67    0.0   24.1
  TC1PUMP                  4.22          21      0.00    639.65    800.00     0.039      6.34    0.0   10.6
  TC2PUMP                  3.76          60      0.00    511.68    810.00     0.028      3.96    0.0    1.8
  TC3PUMP                  1.01          57      0.00    946.76   1100.00     0.014      1.91    0.0   27.5
  TC5PUMP                  1.12          16      0.00    797.03    800.00     0.013      0.94    0.0   99.3
  TC6PUMP                  6.01          75      0.00    406.40    600.00     0.035      7.58    0.0    3.0
  TC8PUMP                  1.01          10      0.00    810.00    810.00     0.012      0.03    0.0  100.0
  WEIGHSTATIONPUMP         4.43          76      0.00     92.66     95.00     0.006      0.90    0.0   31.4
  

  Analysis begun on:  Wed Jun 24 14:58:32 2026
  Analysis ended on:  Wed Jun 24 15:01:10 2026
  Total elapsed time: 00:02:38