
  EPA STORM WATER MANAGEMENT MODEL - VERSION 5.2 (Build 5.2.4)
  ------------------------------------------------------------

  WARNING 04: minimum elevation drop used for Conduit C25
  WARNING 04: minimum elevation drop used for Conduit C26
  WARNING 04: minimum elevation drop used for Conduit C43
  WARNING 04: minimum elevation drop used for Conduit C49
  WARNING 04: minimum elevation drop used for Conduit C50
  WARNING 04: minimum elevation drop used for Conduit C53
  WARNING 04: minimum elevation drop used for Conduit Outfall3_TB1
  WARNING 04: minimum elevation drop used for Conduit Pipe1
  WARNING 04: minimum elevation drop used for Conduit Pipe10_1
  WARNING 04: minimum elevation drop used for Conduit Pipe10_2
  WARNING 04: minimum elevation drop used for Conduit Pipe12
  WARNING 04: minimum elevation drop used for Conduit Pipe13
  WARNING 04: minimum elevation drop used for Conduit Pipe14
  WARNING 04: minimum elevation drop used for Conduit Pipe15
  WARNING 04: minimum elevation drop used for Conduit Pipe16
  WARNING 04: minimum elevation drop used for Conduit Pipe17
  WARNING 04: minimum elevation drop used for Conduit Pipe18
  WARNING 04: minimum elevation drop used for Conduit Pipe19
  WARNING 04: minimum elevation drop used for Conduit Pipe23
  WARNING 04: minimum elevation drop used for Conduit Pipe24
  WARNING 04: minimum elevation drop used for Conduit Pipe25
  WARNING 04: minimum elevation drop used for Conduit Pipe26
  WARNING 04: minimum elevation drop used for Conduit Pipe27
  WARNING 04: minimum elevation drop used for Conduit Pipe28
  WARNING 04: minimum elevation drop used for Conduit Pipe29
  WARNING 04: minimum elevation drop used for Conduit Pipe30
  WARNING 04: minimum elevation drop used for Conduit Pipe31
  WARNING 04: minimum elevation drop used for Conduit Pipe32
  WARNING 04: minimum elevation drop used for Conduit Pipe33
  WARNING 04: minimum elevation drop used for Conduit Pipe34
  WARNING 04: minimum elevation drop used for Conduit sump_3614
  WARNING 04: minimum elevation drop used for Conduit sump_3615
  WARNING 04: minimum elevation drop used for Conduit TB2_TB3
  WARNING 04: minimum elevation drop used for Conduit W3
  WARNING 04: minimum elevation drop used for Conduit WD-2_2
  WARNING 02: maximum depth increased for Node J121
  WARNING 02: maximum depth increased for Node J29
  WARNING 02: maximum depth increased for Node J71
  WARNING 02: maximum depth increased for Node J72
  WARNING 02: maximum depth increased for Node J77
  WARNING 02: maximum depth increased for Node TB3
  
  ****************
  Analysis Options
  ****************
  Flow Units ............... CFS
  Process Models:
    Rainfall/Runoff ........ YES
    RDII ................... NO
    Snowmelt ............... NO
    Groundwater ............ NO
    Flow Routing ........... YES
    Ponding Allowed ........ NO
    Water Quality .......... NO
  Infiltration Method ...... CURVE_NUMBER
  Flow Routing Method ...... DYNWAVE
  Surcharge Method ......... EXTRAN
  Starting Date ............ 10/08/2014 00:00:00
  Ending Date .............. 10/10/2014 00:00:00
  Antecedent Dry Days ...... 0.0
  Report Time Step ......... 00:01:00
  Wet Time Step ............ 00:05:00
  Dry Time Step ............ 00:05:00
  Routing Time Step ........ 10.00 sec
  Variable Time Step ....... YES
  Maximum Trials ........... 8
  Number of Threads ........ 1
  Head Tolerance ........... 0.001000 ft
  
  
  ERROR 331: cannot open hot start interface file D:\2016PC\Summer2014\root.hsf.

  Analysis begun on:  Wed Jun 24 15:01:10 2026
  Analysis ended on:  Wed Jun 24 15:01:10 2026
  Total elapsed time: < 1 sec