
  EPA STORM WATER MANAGEMENT MODEL - VERSION 5.2 (Build 5.2.4)
  ------------------------------------------------------------

  WARNING 04: minimum elevation drop used for Conduit P-AY-4
  
  *************
  Element Count
  *************
  Number of rain gages ...... 0
  Number of subcatchments ... 0
  Number of nodes ........... 66
  Number of links ........... 64
  Number of pollutants ...... 0
  Number of land uses ....... 0
  
  
  ************
  Node Summary
  ************
                                           Invert      Max.    Ponded    External
  Name                 Type                 Elev.     Depth      Area    Inflow  
  -------------------------------------------------------------------------------
  AY                   JUNCTION           1944.00    156.00       0.0    Yes
  AY-1                 JUNCTION           1928.00    172.00       0.0
  AY-2                 JUNCTION           1998.00    102.00       0.0
  AY-3                 JUNCTION           1771.69    328.31       0.0
  AY-4                 JUNCTION           1756.00    344.00       0.0
  AY-5                 JUNCTION           1756.00    344.00       0.0
  AY-6                 JUNCTION           1679.00    421.00       0.0
  AY-7                 JUNCTION           1695.33    404.67       0.0
  AY-8                 JUNCTION           1629.00    471.00       0.0
  BC                   JUNCTION           1697.50    402.50       0.0    Yes
  BC-1                 JUNCTION           1725.50    374.50       0.0
  BC-2                 JUNCTION           1914.30    185.70       0.0
  BC-3                 JUNCTION           1865.60    234.40       0.0
  D                    JUNCTION           1698.00    402.00       0.0    Yes
  D-1                  JUNCTION           1712.30    387.70       0.0
  E                    JUNCTION           1575.00    525.00       0.0    Yes
  E-1                  JUNCTION           1569.00    531.00       0.0
  E-2                  JUNCTION           1590.00    510.00       0.0
  F                    JUNCTION           1524.00    576.00       0.0    Yes
  F-1                  JUNCTION           1519.00    581.00       0.0
  G                    JUNCTION           1696.00    404.00       0.0    Yes
  G-1                  JUNCTION           1557.00    543.00       0.0
  H                    JUNCTION           1365.00    735.00       0.0    Yes
  H-1                  JUNCTION           1355.00    745.00       0.0
  I                    JUNCTION           1370.00    730.00       0.0    Yes
  I-1                  JUNCTION           1386.50    713.50       0.0
  J                    JUNCTION           1504.00    596.00       0.0    Yes
  J-1                  JUNCTION           1510.00    590.00       0.0
  J-2                  JUNCTION           1444.00    656.00       0.0
  J-4                  JUNCTION              0.00      0.00       0.0
  K                    JUNCTION           1380.00    819.00       0.0    Yes
  K-1                  JUNCTION           1384.00    815.00       0.0
  K-2                  JUNCTION           1369.00    830.00       0.0
  L                    JUNCTION           1516.00    683.00       0.0    Yes
  L-1                  JUNCTION           1490.00    709.00       0.0
  L-2                  JUNCTION           1507.50    691.50       0.0
  L-3                  JUNCTION           1500.00    699.00       0.0
  M                    JUNCTION           1550.00    649.00       0.0    Yes
  P                    JUNCTION           1581.00    618.00       0.0    Yes
  Q                    JUNCTION           1767.00    432.00       0.0    Yes
  Q-1                  JUNCTION           1717.53    481.47       0.0
  Q-2                  JUNCTION           1765.00    434.00       0.0
  R                    JUNCTION           1876.50    322.50       0.0    Yes
  R-1                  JUNCTION           1744.14    454.86       0.0
  R-1-A                JUNCTION           1788.50    450.00       0.0
  R-2                  JUNCTION           1787.00    412.00       0.0
  S                    JUNCTION           1930.00    269.00       0.0    Yes
  S-1                  JUNCTION           1856.00    343.00       0.0
  S-1-A                JUNCTION           1894.00    450.00       0.0
  T                    JUNCTION           2015.00    184.00       0.0    Yes
  U                    JUNCTION           2008.30    191.00       0.0    Yes
  U-1                  JUNCTION           2025.00    172.00       0.0
  V                    JUNCTION           1750.50    448.50       0.0    Yes
  V-1                  JUNCTION           1753.50    445.50       0.0
  W                    JUNCTION           1383.00    816.00       0.0    Yes
  W-1                  JUNCTION           1354.00    845.00       0.0
  W-2                  JUNCTION           1444.00    755.00       0.0
  W-3                  JUNCTION           1447.00    752.00       0.0
  W-4                  JUNCTION           1368.00    831.00       0.0
  W-5                  JUNCTION           1371.00    828.00       0.0
  W-6                  JUNCTION           1267.00    932.00       0.0
  W-7                  JUNCTION           1305.50    893.50       0.0
  W-8                  JUNCTION           1389.50    809.50       0.0
  XO-N                 JUNCTION           1383.00    816.00       0.0    Yes
  GRAVITY-LINE-TIEIN   OUTFALL            1300.00      0.83       0.0
  WW-AY                STORAGE            1934.00     10.00       0.0    Yes
  
  
  ************
  Link Summary
  ************
  Name             From Node        To Node          Type            Length    %Slope Roughness
  ---------------------------------------------------------------------------------------------
  P-AY             AY               AY-1             CONDUIT          994.7    1.6087    0.0130
  P-AY-1           AY-1             AY-2             CONDUIT         3019.3   -2.3190    0.0130
  P-AY-2           AY-2             AY-3             CONDUIT         3541.9    6.4026    0.0130
  P-AY-3           AY-3             AY-4             CONDUIT         1053.7    1.4892    0.0130
  P-AY-4           AY-4             AY-5             CONDUIT          565.2    0.0002    0.0130
  P-AY-5           AY-5             AY-6             CONDUIT         2807.2    2.7440    0.0130
  P-AY-6           AY-6             AY-7             CONDUIT          568.2   -2.8752    0.0130
  P-AY-7           AY-7             AY-8             CONDUIT          394.5   17.0567    0.0130
  P-AY-8           AY-8             BC               CONDUIT          568.4  -12.1403    0.0130
  P-BC             BC               BC-1             CONDUIT          323.0   -8.7022    0.0130
  P-BC-1           BC-1             BC-2             CONDUIT         3527.0   -5.3607    0.0130
  P-BC-2           BC-2             BC-3             CONDUIT         1441.3    3.3809    0.0130
  P-BC-3           BC-3             U                CONDUIT         1968.8   -7.2673    0.0130
  P-D              D                D-1              CONDUIT          320.6   -4.4646    0.0130
  P-D-1            D-1              G                CONDUIT          202.7    8.0669    0.0130
  P-E              E                E-1              CONDUIT          215.0    2.7914    0.0130
  P-E-1            E-1              E-2              CONDUIT          977.4   -2.1490    0.0130
  P-E-2            E-2              P                CONDUIT          773.7    1.1633    0.0130
  P-F              F                F-1              CONDUIT         1029.6    0.4857    0.0130
  P-F-1            F-1              L                CONDUIT          102.9    2.9173    0.0130
  P-G              G                G-1              CONDUIT         2137.0    6.5182    0.0130
  P-G-1            G-1              E                CONDUIT          205.9   -8.7756    0.0130
  P-H              H                H-1              CONDUIT          200.0    5.0075    0.0130
  P-H-1            H-1              K                CONDUIT          438.6   -5.7087    0.0130
  P-I              I                I-1              CONDUIT           84.6  -19.8795    0.0130
  P-I-1            I-1              W                CONDUIT          483.4    0.7241    0.0130
  P-J              J                J-1              CONDUIT          203.6   -2.9487    0.0130
  P-J-1            J-1              J-2              CONDUIT          829.2    7.9850    0.0130
  P-J-2            J-2              H                CONDUIT         1257.2    6.2960    0.0130
  P-K              K                K-1              CONDUIT          125.4   -3.1923    0.0130
  P-K-1            K-1              K-2              CONDUIT          892.9    1.6802    0.0130
  P-K-2            K-2              I                CONDUIT           61.6   -1.6238    0.0130
  P-L              L                L-1              CONDUIT          745.8    3.4882    0.0130
  P-L-1            L-1              L-2              CONDUIT          695.6   -2.5165    0.0130
  P-L-2            L-2              L-3              CONDUIT          348.0    2.1557    0.0130
  P-L-3            L-3              J                CONDUIT           90.2   -4.4408    0.0130
  P-M              M                F                CONDUIT          573.6    4.5374    0.0130
  P-P              P                M                CONDUIT         1094.5    2.8334    0.0130
  P-Q              Q                Q-1              CONDUIT          753.3    6.5809    0.0130
  P-Q-1            Q-1              Q-2              CONDUIT          767.5   -6.1968    0.0130
  P-Q-2            Q-2              V                CONDUIT          226.3    6.4198    0.0130
  P-R              R                R-1-A            CONDUIT         1096.9    8.0488    0.0130
  P-R-1            R-1              R-2              CONDUIT          865.0   -4.9609    0.0130
  P-R-1-A          R-1-A            R-1              CONDUIT          703.7    6.3164    0.0130
  P-R-2            R-2              Q                CONDUIT          328.9    6.0924    0.0130
  P-S              S                S-1-A            CONDUIT          349.2   10.3637    0.0130
  P-S-1            S-1              R                CONDUIT          413.2   -4.9677    0.0130
  P-S-1-A          S-1-A            S-1              CONDUIT          653.8    5.8218    0.0130
  P-T              T                S                CONDUIT          977.3    8.7301    0.0130
  P-U              U                U-1              CONDUIT          357.2   -4.6805    0.0130
  P-U-1            U-1              T                CONDUIT          342.2    2.9237    0.0130
  P-V              V                V-1              CONDUIT          336.6   -0.8914    0.0130
  P-V-1            V-1              D                CONDUIT          651.6    8.5484    0.0130
  P-W              W                W-1              CONDUIT          225.9   12.9460    0.0130
  P-W-1            W-1              W-2              CONDUIT         1784.6   -5.0496    0.0130
  P-W-2            W-2              W-3              CONDUIT          602.7   -0.4978    0.0130
  P-W-3            W-3              W-4              CONDUIT         1038.0    7.6329    0.0130
  P-W-4            W-4              W-5              CONDUIT          547.6   -0.5479    0.0130
  P-W-5            W-5              W-6              CONDUIT         1901.4    5.4778    0.0130
  P-W-6            W-6              W-7              CONDUIT         1223.1   -3.1493    0.0130
  P-W-7            W-7              W-8              CONDUIT         1811.2   -4.6429    0.0130
  P-W-8            W-8              XO-N             CONDUIT          704.5    0.9227    0.0130
  P-XON            XO-N             GRAVITY-LINE-TIEIN CONDUIT         1408.3    5.9040    0.0130
  PU-AY            WW-AY            AY               IDEAL PUMP  
  
  
  *********************
  Cross Section Summary
  *********************
                                        Full     Full     Hyd.     Max.   No. of     Full
  Conduit          Shape               Depth     Area     Rad.    Width  Barrels     Flow
  ---------------------------------------------------------------------------------------
  P-AY             FORCE_MAIN           0.33     0.09     0.08     0.33        1     0.37
  P-AY-1           FORCE_MAIN           0.33     0.09     0.08     0.33        1     0.45
  P-AY-2           FORCE_MAIN           0.33     0.09     0.08     0.33        1     0.78
  P-AY-3           FORCE_MAIN           0.33     0.09     0.08     0.33        1     0.36
  P-AY-4           FORCE_MAIN           0.33     0.09     0.08     0.33        1     0.00
  P-AY-5           FORCE_MAIN           0.33     0.09     0.08     0.33        1     0.49
  P-AY-6           FORCE_MAIN           0.33     0.09     0.08     0.33        1     0.51
  P-AY-7           FORCE_MAIN           0.33     0.09     0.08     0.33        1     1.33
  P-AY-8           FORCE_MAIN           0.33     0.09     0.08     0.33        1     1.10
  P-BC             FORCE_MAIN           0.33     0.09     0.08     0.33        1     0.92
  P-BC-1           FORCE_MAIN           0.33     0.09     0.08     0.33        1     0.71
  P-BC-2           FORCE_MAIN           0.33     0.09     0.08     0.33        1     0.55
  P-BC-3           FORCE_MAIN           0.33     0.09     0.08     0.33        1     0.84
  P-D              FORCE_MAIN           0.50     0.20     0.12     0.50        1     1.84
  P-D-1            FORCE_MAIN           0.50     0.20     0.12     0.50        1     2.53
  P-E              FORCE_MAIN           0.67     0.35     0.17     0.67        1     3.01
  P-E-1            FORCE_MAIN           0.67     0.35     0.17     0.67        1     2.61
  P-E-2            FORCE_MAIN           0.67     0.35     0.17     0.67        1     1.87
  P-F              FORCE_MAIN           0.50     0.20     0.12     0.50        1     0.56
  P-F-1            FORCE_MAIN           0.50     0.20     0.12     0.50        1     1.46
  P-G              FORCE_MAIN           0.50     0.20     0.12     0.50        1     2.26
  P-G-1            FORCE_MAIN           0.50     0.20     0.12     0.50        1     2.65
  P-H              FORCE_MAIN           0.67     0.35     0.17     0.67        1     4.12
  P-H-1            FORCE_MAIN           0.67     0.35     0.17     0.67        1     4.43
  P-I              FORCE_MAIN           0.67     0.35     0.17     0.67        1     8.68
  P-I-1            FORCE_MAIN           0.67     0.35     0.17     0.67        1     1.45
  P-J              FORCE_MAIN           0.67     0.35     0.17     0.67        1     3.10
  P-J-1            FORCE_MAIN           0.83     0.55     0.21     0.83        1     9.46
  P-J-2            FORCE_MAIN           0.67     0.35     0.17     0.67        1     4.67
  P-K              FORCE_MAIN           0.67     0.35     0.17     0.67        1     3.23
  P-K-1            FORCE_MAIN           0.67     0.35     0.17     0.67        1     2.29
  P-K-2            FORCE_MAIN           0.67     0.35     0.17     0.67        1     2.24
  P-L              FORCE_MAIN           0.83     0.55     0.21     0.83        1     6.05
  P-L-1            FORCE_MAIN           0.83     0.55     0.21     0.83        1     5.07
  P-L-2            FORCE_MAIN           0.83     0.55     0.21     0.83        1     4.66
  P-L-3            FORCE_MAIN           0.83     0.55     0.21     0.83        1     6.89
  P-M              FORCE_MAIN           0.67     0.35     0.17     0.67        1     3.91
  P-P              FORCE_MAIN           0.67     0.35     0.17     0.67        1     3.03
  P-Q              FORCE_MAIN           0.50     0.20     0.12     0.50        1     2.27
  P-Q-1            FORCE_MAIN           0.50     0.20     0.12     0.50        1     2.20
  P-Q-2            FORCE_MAIN           0.50     0.20     0.12     0.50        1     2.24
  P-R              FORCE_MAIN           0.50     0.20     0.12     0.50        1     2.53
  P-R-1            FORCE_MAIN           0.50     0.20     0.12     0.50        1     1.95
  P-R-1-A          FORCE_MAIN           0.50     0.20     0.12     0.50        1     2.22
  P-R-2            FORCE_MAIN           0.50     0.20     0.12     0.50        1     2.18
  P-S              FORCE_MAIN           0.50     0.20     0.12     0.50        1     2.90
  P-S-1            FORCE_MAIN           0.50     0.20     0.12     0.50        1     1.95
  P-S-1-A          FORCE_MAIN           0.50     0.20     0.12     0.50        1     2.12
  P-T              FORCE_MAIN           0.50     0.20     0.12     0.50        1     2.64
  P-U              FORCE_MAIN           0.50     0.20     0.12     0.50        1     1.89
  P-U-1            CIRCULAR             0.50     0.20     0.12     0.50        1     0.96
  P-V              CIRCULAR             0.50     0.20     0.12     0.50        1     0.53
  P-V-1            CIRCULAR             0.50     0.20     0.12     0.50        1     1.64
  P-W              CIRCULAR             0.83     0.55     0.21     0.83        1     7.88
  P-W-1            CIRCULAR             0.83     0.55     0.21     0.83        1     4.92
  P-W-2            CIRCULAR             0.83     0.55     0.21     0.83        1     1.55
  P-W-3            CIRCULAR             0.83     0.55     0.21     0.83        1     6.05
  P-W-4            CIRCULAR             0.83     0.55     0.21     0.83        1     1.62
  P-W-5            CIRCULAR             0.83     0.55     0.21     0.83        1     5.13
  P-W-6            CIRCULAR             0.83     0.55     0.21     0.83        1     3.89
  P-W-7            CIRCULAR             0.83     0.55     0.21     0.83        1     4.72
  P-W-8            CIRCULAR             0.83     0.55     0.21     0.83        1     2.10
  P-XON            CIRCULAR             0.83     0.55     0.21     0.83        1     5.32
  
  
  ****************
  Analysis Options
  ****************
  Flow Units ............... CFS
  Process Models:
    Rainfall/Runoff ........ NO
    RDII ................... NO
    Snowmelt ............... NO
    Groundwater ............ NO
    Flow Routing ........... YES
    Ponding Allowed ........ NO
    Water Quality .......... NO
  Flow Routing Method ...... DYNWAVE
  Surcharge Method ......... EXTRAN
  Starting Date ............ 01/01/2002 00:00:00
  Ending Date .............. 01/01/2002 23:00:00
  Antecedent Dry Days ...... 5.0
  Report Time Step ......... 00:05:00
  Routing Time Step ........ 10.00 sec
  Variable Time Step ....... YES
  Maximum Trials ........... 8
  Number of Threads ........ 1
  Head Tolerance ........... 0.005000 ft
  
  
  *********************
  Control Actions Taken
  *********************

  
  **************************        Volume        Volume
  Flow Routing Continuity        acre-feet      10^6 gal
  **************************     ---------     ---------
  Dry Weather Inflow .......         1.739         0.567
  Wet Weather Inflow .......         0.000         0.000
  Groundwater Inflow .......         0.000         0.000
  RDII Inflow ..............         0.000         0.000
  External Inflow ..........         0.000         0.000
  External Outflow .........         1.353         0.441
  Flooding Loss ............         0.094         0.031
  Evaporation Loss .........         0.000         0.000
  Exfiltration Loss ........         0.000         0.000
  Initial Stored Volume ....         0.000         0.000
  Final Stored Volume ......         0.259         0.084
  Continuity Error (%) .....         1.922
  
  
  *************************
  Highest Continuity Errors
  *************************
  Node AY-3 (1.77%)
  Node BC-1 (1.68%)
  Node W-6 (1.51%)
  Node AY-1 (1.47%)
  Node AY-6 (1.46%)
  
  
  ***************************
  Time-Step Critical Elements
  ***************************
  Link P-F-1 (97.24%)
  
  
  ********************************
  Highest Flow Instability Indexes
  ********************************
  Link P-L-3 (13)
  Link P-L-2 (12)
  Link P-K-2 (6)
  Link P-L-1 (6)
  Link P-I (5)
  
  
  *********************************
  Most Frequent Nonconverging Nodes
  *********************************
  Node GRAVITY-LINE-TIEIN (8.53%)
  Node AY-6 (4.64%)
  Node AY-8 (4.60%)
  Node AY-7 (4.51%)
  Node BC (4.38%)
  
  
  *************************
  Routing Time Step Summary
  *************************
  Minimum Time Step           :     4.08 sec
  Average Time Step           :     7.80 sec
  Maximum Time Step           :    10.00 sec
  % of Time in Steady State   :     0.00
  Average Iterations per Step :     2.69
  % of Steps Not Converging   :     8.53
  Time Step Frequencies       :
     10.000 -  5.493 sec      :    99.97 %
      5.493 -  3.017 sec      :     0.03 %
      3.017 -  1.657 sec      :     0.00 %
      1.657 -  0.910 sec      :     0.00 %
      0.910 -  0.500 sec      :     0.00 %
  
  
  ******************
  Node Depth Summary
  ******************
  
  ---------------------------------------------------------------------------------
                                 Average  Maximum  Maximum  Time of Max    Reported
                                   Depth    Depth      HGL   Occurrence   Max Depth
  Node                 Type         Feet     Feet     Feet  days hr:min        Feet
  ---------------------------------------------------------------------------------
  AY                   JUNCTION   148.05   156.00  2100.00     0  02:31      156.00
  AY-1                 JUNCTION   160.07   168.47  2096.47     0  03:46      168.44
  AY-2                 JUNCTION    79.20    87.63  2085.63     0  03:46       87.60
  AY-3                 JUNCTION   277.62   301.24  2072.93     0  03:19      301.22
  AY-4                 JUNCTION   289.06   313.14  2069.14     0  03:53      313.12
  AY-5                 JUNCTION   286.89   311.12  2067.12     0  03:46      311.09
  AY-6                 JUNCTION   350.73   378.06  2057.06     0  03:47      378.02
  AY-7                 JUNCTION   333.09   359.68  2055.01     0  03:51      359.66
  AY-8                 JUNCTION   395.18   424.60  2053.60     0  03:19      424.58
  BC                   JUNCTION   327.75   354.03  2051.53     0  03:46      354.02
  BC-1                 JUNCTION   300.00   324.90  2050.40     0  03:49      324.87
  BC-2                 JUNCTION   112.16   123.44  2037.74     0  03:46      123.41
  BC-3                 JUNCTION   152.43   166.98  2032.58     0  03:47      166.95
  D                    JUNCTION    18.92    20.61  1718.61     0  00:07       19.26
  D-1                  JUNCTION     0.19     0.19  1712.49     0  03:46        0.19
  E                    JUNCTION    18.04    18.82  1593.82     0  00:32       18.50
  E-1                  JUNCTION    23.44    24.52  1593.52     0  00:32       24.00
  E-2                  JUNCTION     0.31     0.32  1590.32     0  13:48        0.32
  F                    JUNCTION     7.63     8.43  1532.43     0  05:11        8.43
  F-1                  JUNCTION     0.30     0.31  1519.31     0  19:53        0.31
  G                    JUNCTION     0.20     0.21  1696.21     0  03:55        0.21
  G-1                  JUNCTION    37.79    38.63  1595.63     0  03:51       38.59
  H                    JUNCTION    86.50    93.69  1458.69     0  15:03       93.69
  H-1                  JUNCTION    95.51   103.15  1458.15     0  16:48      103.15
  I                    JUNCTION    77.58    84.02  1454.02     0  13:11       84.02
  I-1                  JUNCTION    61.76    67.27  1453.77     0  13:20       67.27
  J                    JUNCTION     7.12     7.50  1511.50     0  03:53        7.49
  J-1                  JUNCTION     0.16     0.17  1510.17     0  15:57        0.17
  J-2                  JUNCTION    16.12    18.05  1462.05     0  23:00       18.05
  J-4                  JUNCTION     0.00     0.00     0.00     0  00:00        0.00
  K                    JUNCTION    70.78    76.98  1456.98     0  13:19       76.98
  K-1                  JUNCTION    66.70    72.63  1456.63     0  19:17       72.63
  K-2                  JUNCTION    78.71    85.19  1454.19     0  17:25       85.19
  L                    JUNCTION     0.20     0.21  1516.21     0  08:56        0.21
  L-1                  JUNCTION    21.60    22.52  1512.52     0  03:54       22.51
  L-2                  JUNCTION     4.13     4.39  1511.89     0  03:53        4.38
  L-3                  JUNCTION    11.04    11.57  1511.57     0  03:54       11.57
  M                    JUNCTION     0.20     0.21  1550.21     0  13:00        0.21
  P                    JUNCTION     0.23     0.24  1581.24     0  17:24        0.24
  Q                    JUNCTION     1.82     3.37  1770.37     0  03:37        2.11
  Q-1                  JUNCTION    48.22    50.97  1768.50     0  03:37       50.04
  Q-2                  JUNCTION     0.12     0.13  1765.13     0  03:46        0.13
  R                    JUNCTION     0.11     0.12  1876.62     0  03:49        0.12
  R-1                  JUNCTION    43.73    46.59  1790.73     0  03:24       45.64
  R-1-A                JUNCTION     1.69     3.52  1792.02     0  03:24        2.49
  R-2                  JUNCTION     0.12     0.13  1787.13     0  03:51        0.13
  S                    JUNCTION     0.10     0.10  1930.10     0  03:49        0.10
  S-1                  JUNCTION    21.19    22.08  1878.08     0  00:24       21.57
  S-1-A                JUNCTION     0.11     0.12  1894.12     0  03:49        0.12
  T                    JUNCTION     0.09     0.10  2015.10     0  03:48        0.10
  U                    JUNCTION    15.38    19.01  2027.31     0  02:43       17.18
  U-1                  JUNCTION     0.14     0.15  2025.15     0  03:48        0.15
  V                    JUNCTION    10.84    11.26  1761.76     0  03:47       11.26
  V-1                  JUNCTION     0.23     0.24  1753.74     0  03:53        0.24
  W                    JUNCTION    63.72    69.32  1452.32     0  17:26       69.32
  W-1                  JUNCTION    90.39    97.97  1451.97     0  17:26       97.97
  W-2                  JUNCTION     4.68     6.81  1450.81     0  02:37        5.23
  W-3                  JUNCTION     0.19     0.21  1447.21     0  10:15        0.21
  W-4                  JUNCTION    26.58    38.04  1406.04     0  03:47       32.02
  W-5                  JUNCTION    23.14    34.22  1405.22     0  03:47       28.26
  W-6                  JUNCTION   110.50   134.83  1401.83     0  03:47      129.61
  W-7                  JUNCTION    75.29    94.10  1399.60     0  03:47       89.40
  W-8                  JUNCTION     0.35     0.41  1389.91     0  15:55        0.41
  XO-N                 JUNCTION     0.19     0.23  1383.23     0  14:30        0.23
  GRAVITY-LINE-TIEIN   OUTFALL      0.19     0.23  1300.23     0  12:30        0.23
  WW-AY                STORAGE      4.06     4.07  1938.07     0  00:08        4.07
  
  
  *******************
  Node Inflow Summary
  *******************
  
  -------------------------------------------------------------------------------------------------
                                  Maximum  Maximum                  Lateral       Total        Flow
                                  Lateral    Total  Time of Max      Inflow      Inflow     Balance
                                   Inflow   Inflow   Occurrence      Volume      Volume       Error
  Node                 Type           CFS      CFS  days hr:min    10^6 gal    10^6 gal     Percent
  -------------------------------------------------------------------------------------------------
  AY                   JUNCTION      0.00     0.21     0  00:25           0       0.126       0.259
  AY-1                 JUNCTION      0.00     0.22     0  00:18           0      0.0954       1.488
  AY-2                 JUNCTION      0.00     0.25     0  02:22           0      0.0941       2.273
  AY-3                 JUNCTION      0.00     0.23     0  01:44           0      0.0921       1.798
  AY-4                 JUNCTION      0.00     0.21     0  01:41           0      0.0905       0.740
  AY-5                 JUNCTION      0.00     0.25     0  01:39           0      0.0898       1.241
  AY-6                 JUNCTION      0.00     0.20     0  01:20           0      0.0887       1.477
  AY-7                 JUNCTION      0.00     0.20     0  01:17           0      0.0874       0.722
  AY-8                 JUNCTION      0.00     0.21     0  01:17           0      0.0868       0.635
  BC                   JUNCTION      0.00     0.21     0  01:17           0      0.0862       0.631
  BC-1                 JUNCTION      0.00     0.19     0  01:36           0      0.0857       1.708
  BC-2                 JUNCTION      0.00     0.21     0  02:14           0      0.0844       2.027
  BC-3                 JUNCTION      0.00     0.17     0  02:37           0      0.0839       1.425
  D                    JUNCTION      0.00     0.75     0  03:53           0       0.444       0.181
  D-1                  JUNCTION      0.00     0.75     0  03:54           0       0.444       0.035
  E                    JUNCTION      0.00     0.76     0  03:53           0       0.447       0.142
  E-1                  JUNCTION      0.00     0.76     0  03:49           0       0.446       0.384
  E-2                  JUNCTION      0.00     0.76     0  03:54           0       0.445       0.260
  F                    JUNCTION      0.01     0.77     0  05:11     0.00619       0.448       0.401
  F-1                  JUNCTION      0.00     0.77     0  13:23           0       0.446       0.123
  G                    JUNCTION      0.01     0.76     0  03:47     0.00619        0.45       0.144
  G-1                  JUNCTION      0.00     0.76     0  03:55           0       0.449       0.435
  H                    JUNCTION      0.00     0.79     0  20:51           0       0.447       0.525
  H-1                  JUNCTION      0.00     0.79     0  13:19           0       0.445       0.284
  I                    JUNCTION      0.04     0.84     0  12:52      0.0248       0.471       0.346
  I-1                  JUNCTION      0.00     0.89     0  01:56           0       0.468       0.360
  J                    JUNCTION      0.00     0.79     0  19:57           0       0.452       0.140
  J-1                  JUNCTION      0.00     0.79     0  20:49           0       0.451       0.068
  J-2                  JUNCTION      0.00     0.79     0  05:26           0       0.451       0.803
  J-4                  JUNCTION      0.00     0.00     0  00:00           0           0       0.000 gal
  K                    JUNCTION      0.01     0.80     0  15:03     0.00619        0.45       0.263
  K-1                  JUNCTION      0.00     0.84     0  01:37           0       0.449       0.448
  K-2                  JUNCTION      0.00     0.80     0  18:15           0       0.448       0.489
  L                    JUNCTION      0.02     0.79     0  14:16      0.0124       0.458       0.079
  L-1                  JUNCTION      0.00     0.79     0  05:16           0       0.458       0.678
  L-2                  JUNCTION      0.00     0.79     0  03:56           0       0.455       0.472
  L-3                  JUNCTION      0.00     0.79     0  22:07           0       0.453       0.240
  M                    JUNCTION      0.00     0.76     0  09:12           0       0.443       0.138
  P                    JUNCTION      0.00     0.76     0  16:57           0       0.443       0.183
  Q                    JUNCTION      0.04     0.32     0  03:52      0.0248       0.181       0.440
  Q-1                  JUNCTION      0.00     0.32     0  03:37           0        0.18       0.661
  Q-2                  JUNCTION      0.00     0.33     0  03:37           0       0.179       0.112
  R                    JUNCTION      0.03     0.28     0  03:49      0.0186       0.159       0.128
  R-1                  JUNCTION      0.00     0.28     0  03:24           0       0.158       0.781
  R-1-A                JUNCTION      0.00     0.28     0  03:49           0       0.159       0.867
  R-2                  JUNCTION      0.00     0.29     0  03:24           0       0.156       0.137
  S                    JUNCTION      0.04     0.25     0  03:48      0.0248       0.142       0.101
  S-1                  JUNCTION      0.00     0.25     0  03:49           0       0.142       0.604
  S-1-A                JUNCTION      0.00     0.25     0  03:49           0       0.142       0.101
  T                    JUNCTION      0.04     0.21     0  03:48      0.0248       0.117       0.117
  U                    JUNCTION      0.02     0.19     0  02:37      0.0124      0.0949       1.124
  U-1                  JUNCTION      0.00     0.17     0  03:46           0      0.0925       0.165
  V                    JUNCTION      0.43     0.75     0  03:52       0.266       0.445       0.099
  V-1                  JUNCTION      0.00     0.75     0  03:47           0       0.445       0.079
  W                    JUNCTION      0.02     0.86     0  13:35      0.0124       0.478       0.355
  W-1                  JUNCTION      0.00     0.86     0  17:18           0       0.477       0.965
  W-2                  JUNCTION      0.00     0.86     0  13:27           0       0.472       1.056
  W-3                  JUNCTION      0.00     0.86     0  13:21           0       0.467       0.157
  W-4                  JUNCTION      0.00     0.86     0  07:12           0       0.466       0.752
  W-5                  JUNCTION      0.00     0.92     0  03:35           0       0.463       1.066
  W-6                  JUNCTION      0.00     0.86     0  21:59           0       0.458       1.530
  W-7                  JUNCTION      0.00     0.86     0  03:47           0       0.451       1.436
  W-8                  JUNCTION      0.00     0.87     0  03:47           0       0.445       0.607
  XO-N                 JUNCTION      0.00     0.86     0  10:53           0       0.442       0.225
  GRAVITY-LINE-TIEIN   OUTFALL       0.00     0.86     0  12:30           0       0.441       0.000
  WW-AY                STORAGE       0.20     0.20     0  00:00       0.127       0.127       0.000
  
  
  **********************
  Node Surcharge Summary
  **********************
  
  Surcharging occurs when water rises above the top of the highest conduit.
  ---------------------------------------------------------------------
                                               Max. Height   Min. Depth
                                   Hours       Above Crown    Below Rim
  Node                 Type      Surcharged           Feet         Feet
  ---------------------------------------------------------------------
  AY                   JUNCTION       22.56        155.667        0.000
  AY-1                 JUNCTION       22.59        168.134        3.533
  AY-2                 JUNCTION       20.52         87.297       14.370
  AY-3                 JUNCTION       21.19        300.907       27.070
  AY-4                 JUNCTION       22.18        312.805       30.862
  AY-5                 JUNCTION       21.30        310.788       32.878
  AY-6                 JUNCTION       21.85        377.727       42.939
  AY-7                 JUNCTION       21.72        359.343       44.993
  AY-8                 JUNCTION       21.77        424.266       46.401
  BC                   JUNCTION       21.66        353.701       48.465
  BC-1                 JUNCTION       21.38        324.563       49.603
  BC-2                 JUNCTION       20.72        123.108       62.259
  BC-3                 JUNCTION       20.95        166.650       67.417
  D                    JUNCTION       22.88         20.113      381.387
  E                    JUNCTION       22.50         18.150      506.183
  E-1                  JUNCTION       22.53         23.854      506.479
  F                    JUNCTION       21.67          7.759      567.574
  G-1                  JUNCTION       22.67         38.128      504.372
  H                    JUNCTION       21.48         93.019      641.315
  H-1                  JUNCTION       21.58        102.484      641.849
  I                    JUNCTION       21.65         83.356      645.978
  I-1                  JUNCTION       21.05         66.602      646.231
  J                    JUNCTION       21.83          6.666      588.500
  J-2                  JUNCTION       20.62         17.214      637.953
  J-4                  JUNCTION       23.00          0.000        0.000
  K                    JUNCTION       21.43         76.311      742.022
  K-1                  JUNCTION       21.34         71.968      742.365
  K-2                  JUNCTION       21.83         84.524      744.809
  L-1                  JUNCTION       21.99         21.684      686.482
  L-2                  JUNCTION       21.70          3.558      687.109
  L-3                  JUNCTION       21.88         10.739      687.428
  Q                    JUNCTION       19.38          2.866      428.634
  Q-1                  JUNCTION       22.05         50.473      430.497
  R-1                  JUNCTION       22.18         46.092      408.268
  R-1-A                JUNCTION       19.60          3.022      446.478
  S-1                  JUNCTION       22.60         21.580      320.920
  U                    JUNCTION       20.29         18.513      171.987
  V                    JUNCTION       22.97         10.760      437.240
  W                    JUNCTION       21.07         68.487      746.679
  W-1                  JUNCTION       21.13         97.140      747.027
  W-2                  JUNCTION       20.38          5.980      748.186
  W-4                  JUNCTION       20.14         37.203      792.964
  W-5                  JUNCTION       19.23         33.386      793.781
  W-6                  JUNCTION       19.73        133.992      797.175
  W-7                  JUNCTION       19.42         93.270      799.397
  
  
  *********************
  Node Flooding Summary
  *********************
  
  Flooding refers to all water that overflows a node, whether it ponds or not.
  --------------------------------------------------------------------------
                                                             Total   Maximum
                                 Maximum   Time of Max       Flood    Ponded
                        Hours       Rate    Occurrence      Volume     Depth
  Node                 Flooded       CFS   days hr:min    10^6 gal      Feet
  --------------------------------------------------------------------------
  AY                     20.48      0.06      0  03:52       0.031     0.000
  
  
  **********************
  Storage Volume Summary
  **********************
  
  ------------------------------------------------------------------------------------------------
                         Average    Avg   Evap  Exfil     Maximum    Max    Time of Max    Maximum
                          Volume   Pcnt   Pcnt   Pcnt      Volume   Pcnt     Occurrence    Outflow
  Storage Unit          1000 ftł   Full   Loss   Loss    1000 ftł   Full    days hr:min        CFS
  ------------------------------------------------------------------------------------------------
  WW-AY                    0.100   40.6    0.0    0.0       0.100   40.7       0  00:08       0.20
  
  
  ***********************
  Outfall Loading Summary
  ***********************
  
  -----------------------------------------------------------
                         Flow       Avg       Max       Total
                         Freq      Flow      Flow      Volume
  Outfall Node           Pcnt       CFS       CFS    10^6 gal
  -----------------------------------------------------------
  GRAVITY-LINE-TIEIN    84.92      0.85      0.86       0.441
  -----------------------------------------------------------
  System                84.92      0.85      0.86       0.441
  
  
  ********************
  Link Flow Summary
  ********************
  
  -----------------------------------------------------------------------------
                                 Maximum  Time of Max   Maximum    Max/    Max/
                                  |Flow|   Occurrence   |Veloc|    Full    Full
  Link                 Type          CFS  days hr:min    ft/sec    Flow   Depth
  -----------------------------------------------------------------------------
  P-AY                 CONDUIT      0.22     0  00:18      5.47    0.59    1.00
  P-AY-1               CONDUIT      0.21     0  00:28      4.42    0.47    1.00
  P-AY-2               CONDUIT      0.21     0  01:46      7.72    0.26    1.00
  P-AY-3               CONDUIT      0.21     0  01:41      3.39    0.60    1.00
  P-AY-4               CONDUIT      0.21     0  01:41      3.31   79.38    1.00
  P-AY-5               CONDUIT      0.20     0  01:20      5.66    0.39    1.00
  P-AY-6               CONDUIT      0.20     0  01:17      4.14    0.39    1.00
  P-AY-7               CONDUIT      0.21     0  01:17     11.41    0.16    1.00
  P-AY-8               CONDUIT      0.21     0  01:17      3.91    0.19    1.00
  P-BC                 CONDUIT      0.19     0  01:36      3.40    0.21    1.00
  P-BC-1               CONDUIT      0.19     0  02:14      2.97    0.27    1.00
  P-BC-2               CONDUIT      0.17     0  02:37      1.96    0.31    1.00
  P-BC-3               CONDUIT      0.17     0  02:37      4.61    0.20    1.00
  P-D                  CONDUIT      0.75     0  03:54      5.15    0.41    0.69
  P-D-1                CONDUIT      0.75     0  03:47     11.82    0.30    0.40
  P-E                  CONDUIT      0.76     0  03:49      7.69    0.25    1.00
  P-E-1                CONDUIT      0.76     0  03:54      2.73    0.29    0.74
  P-E-2                CONDUIT      0.76     0  16:57      5.36    0.41    0.43
  P-F                  CONDUIT      0.77     0  13:23      4.52    1.39    0.81
  P-F-1                CONDUIT      0.77     0  14:16      7.48    0.53    0.52
  P-G                  CONDUIT      0.76     0  03:55      9.65    0.34    0.71
  P-G-1                CONDUIT      0.76     0  03:53      4.13    0.29    1.00
  P-H                  CONDUIT      0.79     0  13:19      2.36    0.19    1.00
  P-H-1                CONDUIT      0.79     0  15:03      3.46    0.18    1.00
  P-I                  CONDUIT      0.84     0  11:38      3.04    0.10    1.00
  P-I-1                CONDUIT      0.84     0  13:35      4.99    0.58    1.00
  P-J                  CONDUIT      0.79     0  20:49      3.44    0.25    0.63
  P-J-1                CONDUIT      0.79     0  05:26     11.27    0.08    0.60
  P-J-2                CONDUIT      0.79     0  20:51      9.26    0.17    1.00
  P-K                  CONDUIT      0.80     0  16:20      3.88    0.25    1.00
  P-K-1                CONDUIT      0.80     0  18:15      2.29    0.35    1.00
  P-K-2                CONDUIT      0.80     0  12:52      3.57    0.36    1.00
  P-L                  CONDUIT      0.79     0  05:16      3.02    0.13    0.63
  P-L-1                CONDUIT      0.79     0  03:56      1.72    0.16    1.00
  P-L-2                CONDUIT      0.79     0  22:07      4.82    0.17    1.00
  P-L-3                CONDUIT      0.79     0  19:57      1.69    0.11    1.00
  P-M                  CONDUIT      0.76     0  05:11      5.51    0.19    0.65
  P-P                  CONDUIT      0.76     0  09:12      7.35    0.25    0.34
  P-Q                  CONDUIT      0.32     0  03:37      5.09    0.14    1.00
  P-Q-1                CONDUIT      0.33     0  03:37      2.55    0.15    0.63
  P-Q-2                CONDUIT      0.32     0  03:52      2.44    0.14    0.63
  P-R                  CONDUIT      0.28     0  03:49      7.75    0.11    0.62
  P-R-1                CONDUIT      0.29     0  03:24      2.27    0.15    0.63
  P-R-1-A              CONDUIT      0.28     0  03:24      3.31    0.13    1.00
  P-R-2                CONDUIT      0.28     0  03:52      5.91    0.13    0.63
  P-S                  CONDUIT      0.25     0  03:49      7.73    0.09    0.22
  P-S-1                CONDUIT      0.25     0  03:49      3.26    0.13    0.62
  P-S-1-A              CONDUIT      0.25     0  03:49      4.19    0.12    0.62
  P-T                  CONDUIT      0.21     0  03:48      7.43    0.08    0.20
  P-U                  CONDUIT      0.17     0  03:46      1.40    0.09    0.65
  P-U-1                CONDUIT      0.17     0  03:48      4.37    0.18    0.25
  P-V                  CONDUIT      0.75     0  03:47      4.83    1.41    0.74
  P-V-1                CONDUIT      0.75     0  03:53      8.24    0.46    0.74
  P-W                  CONDUIT      0.86     0  17:18      4.71    0.11    1.00
  P-W-1                CONDUIT      0.86     0  13:27      1.79    0.17    1.00
  P-W-2                CONDUIT      0.86     0  13:21      2.39    0.56    0.63
  P-W-3                CONDUIT      0.86     0  07:12      7.79    0.14    0.63
  P-W-4                CONDUIT      0.86     0  16:01      2.53    0.53    1.00
  P-W-5                CONDUIT      0.86     0  21:59      7.87    0.17    1.00
  P-W-6                CONDUIT      0.86     0  03:47      2.64    0.22    1.00
  P-W-7                CONDUIT      0.87     0  03:47      2.92    0.18    0.75
  P-W-8                CONDUIT      0.86     0  10:53      4.48    0.41    0.38
  P-XON                CONDUIT      0.86     0  12:30      7.16    0.16    0.27
  PU-AY                PUMP         0.20     0  00:08                          
  
  
  ***************************
  Flow Classification Summary
  ***************************
  
  -------------------------------------------------------------------------------------
                      Adjusted    ---------- Fraction of Time in Flow Class ---------- 
                       /Actual         Up    Down  Sub   Sup   Up    Down  Norm  Inlet 
  Conduit               Length    Dry  Dry   Dry   Crit  Crit  Crit  Crit  Ltd   Ctrl  
  -------------------------------------------------------------------------------------
  P-AY                    1.00   0.01  0.00  0.00  0.98  0.01  0.00  0.00  0.01  0.00
  P-AY-1                  1.00   0.01  0.01  0.00  0.90  0.08  0.00  0.00  0.00  0.00
  P-AY-2                  1.00   0.02  0.00  0.00  0.92  0.06  0.00  0.00  0.05  0.00
  P-AY-3                  1.00   0.02  0.00  0.00  0.97  0.01  0.00  0.00  0.01  0.00
  P-AY-4                  1.00   0.02  0.00  0.00  0.95  0.03  0.00  0.00  0.00  0.00
  P-AY-5                  1.00   0.03  0.00  0.00  0.95  0.03  0.00  0.00  0.01  0.00
  P-AY-6                  1.00   0.03  0.02  0.00  0.95  0.00  0.00  0.00  0.00  0.00
  P-AY-7                  1.00   0.05  0.00  0.00  0.95  0.00  0.00  0.00  0.00  0.00
  P-AY-8                  1.00   0.05  0.00  0.00  0.95  0.00  0.00  0.00  0.00  0.00
  P-BC                    1.00   0.05  0.00  0.00  0.94  0.00  0.00  0.00  0.00  0.00
  P-BC-1                  1.00   0.06  0.02  0.00  0.91  0.01  0.00  0.00  0.00  0.00
  P-BC-2                  1.00   0.00  0.08  0.00  0.92  0.00  0.00  0.00  0.01  0.00
  P-BC-3                  1.00   0.00  0.00  0.00  0.97  0.03  0.00  0.00  0.10  0.00
  P-D                     1.00   0.00  0.00  0.00  0.00  0.99  0.00  0.00  0.00  0.00
  P-D-1                   1.00   0.00  0.01  0.00  0.00  0.99  0.00  0.00  0.99  0.00
  P-E                     1.00   0.01  0.00  0.00  0.98  0.00  0.00  0.00  0.01  0.00
  P-E-1                   1.00   0.01  0.01  0.00  0.98  0.00  0.00  0.00  0.00  0.00
  P-E-2                   1.00   0.02  0.00  0.00  0.00  0.98  0.00  0.00  0.00  0.00
  P-F                     1.00   0.00  0.00  0.00  0.01  0.99  0.00  0.00  0.00  0.00
  P-F-1                   1.00   0.00  0.00  0.00  0.01  0.99  0.00  0.00  0.03  0.00
  P-G                     1.00   0.00  0.00  0.00  0.00  1.00  0.00  0.00  0.99  0.00
  P-G-1                   1.00   0.00  0.01  0.00  0.98  0.00  0.00  0.00  0.00  0.00
  P-H                     1.00   0.00  0.06  0.00  0.94  0.00  0.00  0.00  0.00  0.00
  P-H-1                   1.00   0.00  0.00  0.00  0.99  0.01  0.00  0.00  0.06  0.00
  P-I                     1.00   0.00  0.07  0.00  0.93  0.00  0.00  0.00  0.00  0.00
  P-I-1                   1.00   0.00  0.07  0.00  0.92  0.01  0.00  0.00  0.00  0.00
  P-J                     1.00   0.05  0.01  0.00  0.11  0.83  0.00  0.00  0.00  0.00
  P-J-1                   1.00   0.06  0.00  0.00  0.90  0.04  0.00  0.00  0.94  0.00
  P-J-2                   1.00   0.06  0.00  0.00  0.93  0.01  0.00  0.00  0.03  0.00
  P-K                     1.00   0.00  0.07  0.00  0.93  0.00  0.00  0.00  0.00  0.00
  P-K-1                   1.00   0.00  0.07  0.00  0.93  0.00  0.00  0.00  0.00  0.00
  P-K-2                   1.00   0.00  0.00  0.00  0.99  0.01  0.00  0.00  0.05  0.00
  P-L                     1.00   0.00  0.00  0.00  0.98  0.02  0.00  0.00  1.00  0.00
  P-L-1                   1.00   0.00  0.04  0.00  0.96  0.00  0.00  0.00  0.00  0.00
  P-L-2                   1.00   0.04  0.00  0.00  0.95  0.00  0.00  0.00  0.01  0.00
  P-L-3                   1.00   0.04  0.00  0.00  0.95  0.00  0.00  0.00  0.00  0.00
  P-M                     1.00   0.00  0.02  0.00  0.95  0.03  0.00  0.00  0.98  0.00
  P-P                     1.00   0.02  0.00  0.00  0.00  0.98  0.00  0.00  0.00  0.00
  P-Q                     1.00   0.00  0.00  0.00  0.99  0.01  0.00  0.00  0.12  0.00
  P-Q-1                   1.00   0.00  0.04  0.00  0.96  0.00  0.00  0.00  0.00  0.00
  P-Q-2                   1.00   0.00  0.04  0.00  0.96  0.00  0.00  0.00  0.96  0.00
  P-R                     1.00   0.00  0.00  0.00  0.86  0.14  0.00  0.00  0.99  0.00
  P-R-1                   1.00   0.00  0.04  0.00  0.96  0.00  0.00  0.00  0.00  0.00
  P-R-1-A                 1.00   0.00  0.00  0.00  0.97  0.02  0.00  0.00  0.12  0.00
  P-R-2                   1.00   0.00  0.04  0.00  0.85  0.12  0.00  0.00  0.96  0.00
  P-S                     1.00   0.00  0.00  0.00  0.00  1.00  0.00  0.00  1.00  0.00
  P-S-1                   1.00   0.00  0.00  0.00  1.00  0.00  0.00  0.00  0.02  0.00
  P-S-1-A                 1.00   0.00  0.00  0.00  0.99  0.01  0.00  0.00  1.00  0.00
  P-T                     1.00   0.00  0.00  0.00  0.00  1.00  0.00  0.00  1.00  0.00
  P-U                     1.00   0.00  0.12  0.00  0.88  0.00  0.00  0.00  0.00  0.00
  P-U-1                   1.00   0.00  0.12  0.00  0.00  0.88  0.00  0.00  0.00  0.00
  P-V                     1.00   0.00  0.00  0.00  0.04  0.96  0.00  0.00  0.00  0.00
  P-V-1                   1.00   0.00  0.00  0.00  0.04  0.96  0.00  0.00  1.00  0.00
  P-W                     1.00   0.00  0.00  0.00  0.98  0.02  0.00  0.00  0.08  0.00
  P-W-1                   1.00   0.00  0.09  0.00  0.90  0.00  0.00  0.00  0.00  0.00
  P-W-2                   1.00   0.10  0.02  0.00  0.89  0.00  0.00  0.00  0.00  0.00
  P-W-3                   1.00   0.11  0.00  0.00  0.88  0.01  0.00  0.00  0.88  0.00
  P-W-4                   1.00   0.11  0.01  0.00  0.88  0.00  0.00  0.00  0.00  0.00
  P-W-5                   1.00   0.12  0.00  0.00  0.86  0.01  0.00  0.00  0.03  0.00
  P-W-6                   1.00   0.12  0.02  0.00  0.86  0.00  0.00  0.00  0.00  0.00
  P-W-7                   1.00   0.14  0.02  0.00  0.84  0.00  0.00  0.00  0.00  0.00
  P-W-8                   1.00   0.16  0.00  0.00  0.00  0.84  0.00  0.00  0.00  0.00
  P-XON                   1.00   0.16  0.00  0.00  0.00  0.84  0.00  0.00  0.00  0.00
  
  
  *************************
  Conduit Surcharge Summary
  *************************
  
  ----------------------------------------------------------------------------
                                                           Hours        Hours 
                         --------- Hours Full --------   Above Full   Capacity
  Conduit                Both Ends  Upstream  Dnstream   Normal Flow   Limited
  ----------------------------------------------------------------------------
  P-AY                       22.56     22.56     22.59      0.01         0.01
  P-AY-1                     20.52     20.52     22.56      0.01         0.01
  P-AY-2                     20.52     20.52     21.19      0.01         0.01
  P-AY-3                     21.19     21.19     22.18      0.01         0.01
  P-AY-4                     21.30     22.18     21.30     22.26        21.10
  P-AY-5                     21.30     21.30     21.85      0.01         0.01
  P-AY-6                     21.72     21.72     21.84      0.01         0.01
  P-AY-7                     21.72     21.72     21.77      0.01         0.01
  P-AY-8                     21.66     21.66     21.76      0.01         0.01
  P-BC                       21.38     21.38     21.65      0.01         0.01
  P-BC-1                     20.72     20.72     21.09      0.01         0.01
  P-BC-2                     20.72     20.72     20.95      0.01         0.01
  P-BC-3                     20.34     20.34     20.95      0.01         0.01
  P-D                         0.01      0.01     22.88      0.01         0.01
  P-E                        22.50     22.50     22.53      0.01         0.01
  P-E-1                       0.01      0.01     22.48      0.01         0.01
  P-F                         0.01     21.78      0.01     21.66         0.01
  P-G                         0.01      0.01     22.67      0.01         0.01
  P-G-1                      22.50     22.50     22.67      0.01         0.01
  P-H                        21.48     21.48     21.58      0.01         0.01
  P-H-1                      21.43     21.43     21.58      0.01         0.01
  P-I                        21.05     21.05     21.34      0.01         0.01
  P-I-1                      21.05     21.05     21.08      0.01         0.01
  P-J                         0.01      0.01     21.69      0.01         0.01
  P-J-1                       0.01      0.01     20.62      0.01         0.01
  P-J-2                      20.66     20.66     21.48      0.01         0.01
  P-K                        21.34     21.34     21.43      0.01         0.01
  P-K-1                      21.34     21.34     21.43      0.01         0.01
  P-K-2                      21.65     21.65     21.83      0.01         0.01
  P-L                         0.01      0.01     21.99      0.01         0.01
  P-L-1                      21.70     21.70     21.99      0.01         0.01
  P-L-2                      21.70     21.70     21.88      0.01         0.01
  P-L-3                      21.83     21.83     21.88      0.01         0.01
  P-M                         0.01      0.01     21.67      0.01         0.01
  P-Q                        19.38     19.38     22.05      0.01         0.01
  P-Q-1                       0.01      0.01     22.04      0.01         0.01
  P-Q-2                       0.01      0.01     22.04      0.01         0.01
  P-R                         0.01      0.01     19.60      0.01         0.01
  P-R-1                       0.01      0.01     22.16      0.01         0.01
  P-R-1-A                    19.60     19.60     22.18      0.01         0.01
  P-R-2                       0.01      0.01     19.38      0.01         0.01
  P-S-1                       0.01      0.01     22.60      0.01         0.01
  P-S-1-A                     0.01      0.01     22.60      0.01         0.01
  P-U                         0.01      0.01     20.28      0.01         0.01
  P-V                         0.01      0.01     22.97     22.00         0.01
  P-V-1                       0.01      0.01     22.88      0.01         0.01
  P-W                        21.07     21.07     21.13      0.01         0.01
  P-W-1                      20.38     20.38     20.81      0.01         0.01
  P-W-2                       0.01      0.01     20.38      0.01         0.01
  P-W-3                       0.01      0.01     20.14      0.01         0.01
  P-W-4                      19.23     19.23     20.14      0.01         0.01
  P-W-5                      19.23     19.23     19.73      0.01         0.01
  P-W-6                      19.42     19.42     19.73      0.01         0.01
  P-W-7                       0.01      0.01     19.23      0.01         0.01
  
  
  ***************
  Pumping Summary
  ***************
  
  ---------------------------------------------------------------------------------------------------------
                                                  Min       Avg       Max     Total     Power    % Time Off
                        Percent   Number of      Flow      Flow      Flow    Volume     Usage    Pump Curve
  Pump                 Utilized   Start-Ups       CFS       CFS       CFS  10^6 gal     Kw-hr    Low   High
  ---------------------------------------------------------------------------------------------------------
  PU-AY                   99.41           1      0.00      0.20      0.20     0.126     60.92    0.0    0.0
  

  Analysis begun on:  Wed Jun 24 15:01:10 2026
  Analysis ended on:  Wed Jun 24 15:01:10 2026
  Total elapsed time: < 1 sec