
  EPA STORM WATER MANAGEMENT MODEL - VERSION 5.2 (Build 5.2.4)
  ------------------------------------------------------------

                                         Muddy Creek 
                                         Resize (do not delete this KEYWORD) 
  WARNING 04: minimum elevation drop used for Conduit 24708014-24708022
  WARNING 04: minimum elevation drop used for Conduit 24709032-24709024
  WARNING 04: minimum elevation drop used for Conduit 24709045-24709020
  WARNING 04: minimum elevation drop used for Conduit 24403037-24403036
  WARNING 04: minimum elevation drop used for Conduit 24403036-CSO415R
  WARNING 08: elevation drop exceeds length for Conduit 20101033-20101003
  WARNING 04: minimum elevation drop used for Conduit 19212013-19212014
  WARNING 08: elevation drop exceeds length for Conduit 11702005-11701013
  WARNING 04: minimum elevation drop used for Conduit 10902002-10902032
  WARNING 08: elevation drop exceeds length for Conduit 19216018-19216019
  WARNING 04: minimum elevation drop used for Conduit 23809013-23809049
  WARNING 04: minimum elevation drop used for Conduit 23809050-23809002
  WARNING 08: elevation drop exceeds length for Conduit 23916008-23916007
  WARNING 04: minimum elevation drop used for Conduit 19003002-19003014
  WARNING 04: minimum elevation drop used for Conduit 24108031-24108030
  WARNING 04: minimum elevation drop used for Conduit 20414031-20414013
  WARNING 04: minimum elevation drop used for Conduit 20413030-20413031
  
  ****************
  Analysis Options
  ****************
  Flow Units ............... CFS
  Process Models:
    Rainfall/Runoff ........ YES
    RDII ................... YES
    Snowmelt ............... NO
    Groundwater ............ NO
    Flow Routing ........... YES
    Ponding Allowed ........ YES
    Water Quality .......... NO
  Infiltration Method ...... HORTON
  Flow Routing Method ...... DYNWAVE
  Surcharge Method ......... EXTRAN
  Starting Date ............ 01/01/1970 00:00:00
  Ending Date .............. 02/01/1970 00:00:00
  Antecedent Dry Days ...... 0.0
  Report Time Step ......... 01:00:00
  Wet Time Step ............ 00:15:00
  Dry Time Step ............ 00:15:00
  Routing Time Step ........ 60.00 sec
  Variable Time Step ....... YES
  Maximum Trials ........... 8
  Number of Threads ........ 1
  Head Tolerance ........... 0.005000 ft
  
  
  **********************           Volume        Volume
  Rainfall Dependent I/I        acre-feet      10^6 gal
  **********************        ---------     ---------
  Sewershed Rainfall ......       738.667       240.706
  RDII Produced ...........        39.133        12.752
  RDII Ratio ..............         0.053
  
  
  *********************
  Control Actions Taken
  *********************

  
  **************************        Volume         Depth
  Runoff Quantity Continuity     acre-feet        inches
  **************************     ---------       -------
  Total Precipitation ......       743.542         1.270
  Evaporation Loss .........         0.000         0.000
  Infiltration Loss ........       493.246         0.842
  Surface Runoff ...........       237.322         0.405
  Final Storage ............        14.495         0.025
  Continuity Error (%) .....        -0.205
  
  
  **************************        Volume        Volume
  Flow Routing Continuity        acre-feet      10^6 gal
  **************************     ---------     ---------
  Dry Weather Inflow .......      2103.432       685.435
  Wet Weather Inflow .......       237.004        77.231
  Groundwater Inflow .......         0.000         0.000
  RDII Inflow ..............        39.134        12.752
  External Inflow ..........         0.000         0.000
  External Outflow .........      2180.116       710.423
  Flooding Loss ............       171.424        55.861
  Evaporation Loss .........         0.000         0.000
  Exfiltration Loss ........         0.000         0.000
  Initial Stored Volume ....         0.065         0.021
  Final Stored Volume ......         7.159         2.333
  Continuity Error (%) .....         0.880
  
  
  *************************
  Highest Continuity Errors
  *************************
  Node 10902032 (24.94%)
  Node 24116025 (17.18%)
  Node 20703006 (15.37%)
  Node 10902028 (-8.51%)
  Node 20104021 (3.35%)
  
  
  ***************************
  Time-Step Critical Elements
  ***************************
  Link 15308031-15308032 (86.37%)
  Link 19003002-19003014 (5.31%)
  
  
  ********************************
  Highest Flow Instability Indexes
  ********************************
  Link 19510003-19510004 (145)
  Link 19510005-19510006 (145)
  Link 20404009-20404010 (140)
  Link 24516002-24516001 (102)
  Link 15702001-15701001 (100)
  
  
  *********************************
  Most Frequent Nonconverging Nodes
  *********************************
  Node CSO401R_O (99.63%)
  Node CSO405R_O (99.63%)
  Node CSO404R_O (99.63%)
  Node CSO403R_O (99.63%)
  Node CSO402R_O (99.63%)
  
  
  *************************
  Routing Time Step Summary
  *************************
  Minimum Time Step           :     0.74 sec
  Average Time Step           :    30.86 sec
  Maximum Time Step           :    57.01 sec
  % of Time in Steady State   :     0.00
  Average Iterations per Step :     7.99
  % of Steps Not Converging   :    99.63
  Time Step Frequencies       :
     60.000 - 23.031 sec      :    92.48 %
     23.031 -  8.841 sec      :     5.85 %
      8.841 -  3.393 sec      :     1.55 %
      3.393 -  1.303 sec      :     0.11 %
      1.303 -  0.500 sec      :     0.00 %
  
  
  ***************************
  Subcatchment Runoff Summary
  ***************************
  
  ------------------------------------------------------------------------------------------------------------------------------
                            Total      Total      Total      Total     Imperv       Perv      Total       Total     Peak  Runoff
                           Precip      Runon       Evap      Infil     Runoff     Runoff     Runoff      Runoff   Runoff   Coeff
  Subcatchment                 in         in         in         in         in         in         in    10^6 gal      CFS
  ------------------------------------------------------------------------------------------------------------------------------
  GMMC15CC0001               1.27       0.00       0.00       1.14       0.13       0.00       0.13        0.03     0.35   0.100
  GMMC15CC0002               1.27       0.00       0.00       1.14       0.13       0.00       0.13        0.02     0.25   0.100
  GMMC15CC0003               1.27       0.00       0.00       1.06       0.20       0.00       0.20        0.03     0.39   0.155
  GMMC15CC0004               1.27       0.00       0.00       1.12       0.15       0.00       0.15        0.03     0.39   0.114
  GMMC15CC0005               1.27       0.00       0.00       1.09       0.17       0.00       0.17        0.01     0.09   0.137
  GMMC15CC0006               1.27       0.00       0.00       1.11       0.16       0.00       0.16        0.01     0.07   0.123
  GMMC15CC0007               1.27       0.00       0.00       1.14       0.13       0.00       0.13        0.01     0.09   0.100
  GMMC15CC0008               1.27       0.00       0.00       1.14       0.13       0.00       0.13        0.01     0.16   0.100
  GMMC15CC0009               1.27       0.00       0.00       1.14       0.13       0.00       0.13        0.00     0.05   0.100
  GMMC15CC0011               1.27       0.00       0.00       1.14       0.13       0.00       0.13        0.02     0.25   0.100
  GMMC15CC0012               1.27       0.00       0.00       1.14       0.13       0.00       0.13        0.01     0.10   0.100
  GMMC15CC0013               1.27       0.00       0.00       1.14       0.13       0.00       0.13        0.01     0.10   0.100
  GMMC15CC0014               1.27       0.00       0.00       1.07       0.19       0.00       0.19        0.04     0.41   0.149
  GMMC15CC0015               1.27       0.00       0.00       1.14       0.13       0.00       0.13        0.01     0.09   0.100
  GMMC15CC0016               1.27       0.00       0.00       1.14       0.13       0.00       0.13        0.01     0.12   0.100
  GMMC15CC0017               1.27       0.00       0.00       1.10       0.16       0.00       0.16        0.02     0.25   0.129
  GMMC15CC0018               1.27       0.00       0.00       1.14       0.13       0.00       0.13        0.03     0.36   0.100
  GMMC15CC0019               1.27       0.00       0.00       1.14       0.13       0.00       0.13        0.02     0.22   0.100
  GMMC15CC0020               1.27       0.00       0.00       1.11       0.15       0.00       0.15        0.01     0.15   0.121
  GMMC15CC0021               1.27       0.00       0.00       1.12       0.14       0.00       0.14        0.02     0.21   0.111
  GMMC15CC0022               1.27       0.00       0.00       1.12       0.15       0.00       0.15        0.01     0.11   0.114
  GMMC15CC0023               1.27       0.00       0.00       1.14       0.13       0.00       0.13        0.00     0.04   0.100
  GMMC15CC0024               1.27       0.00       0.00       1.03       0.23       0.00       0.23        0.03     0.36   0.182
  GMMC15CC0025               1.27       0.00       0.00       1.12       0.14       0.00       0.14        0.02     0.24   0.111
  GMMC15CC0026               1.27       0.00       0.00       1.13       0.14       0.00       0.14        0.03     0.35   0.107
  GMMC15CC0027               1.27       0.00       0.00       1.11       0.15       0.00       0.15        0.04     0.50   0.117
  GMMC15CC0028               1.27       0.00       0.00       1.12       0.14       0.00       0.14        0.05     0.56   0.109
  GMMC15CC0029               1.27       0.00       0.00       1.11       0.16       0.00       0.16        0.01     0.12   0.123
  GMMC15CC0030               1.27       0.00       0.00       1.14       0.13       0.00       0.13        0.01     0.10   0.100
  GMMC15CC0031               1.27       0.00       0.00       1.11       0.15       0.00       0.15        0.04     0.47   0.119
  GMMC15CC0032               1.27       0.00       0.00       1.14       0.13       0.00       0.13        0.02     0.22   0.100
  GMMC15CC0033               1.27       0.00       0.00       1.12       0.14       0.00       0.14        0.01     0.16   0.111
  GMMC15CC0034               1.27       0.00       0.00       1.11       0.16       0.00       0.16        0.01     0.08   0.123
  GMMC15CC0035               1.27       0.00       0.00       1.11       0.15       0.00       0.15        0.04     0.49   0.118
  GMMC15CC0036               1.27       0.00       0.00       1.12       0.14       0.00       0.14        0.03     0.30   0.109
  GMMC15CC0037               1.27       0.00       0.00       1.07       0.19       0.00       0.19        0.09     1.06   0.150
  GMMC15CC0038               1.27       0.00       0.00       1.10       0.16       0.00       0.16        0.05     0.58   0.127
  GMMC15CC0039               1.27       0.00       0.00       1.17       0.10       0.00       0.10        0.06     0.66   0.075
  GMMC15CC0040               1.27       0.00       0.00       1.08       0.18       0.00       0.18        0.20     2.22   0.145
  GMMC15CC0041               1.27       0.00       0.00       1.08       0.18       0.00       0.18        0.04     0.47   0.142
  GMMC15CC0042               1.27       0.00       0.00       1.12       0.14       0.00       0.14        0.47     5.10   0.111
  GMMC15CC0043               1.27       0.00       0.00       1.16       0.10       0.00       0.10        0.12     1.17   0.080
  GMMC15CC0044               1.27       0.00       0.00       1.08       0.18       0.00       0.18        0.20     2.24   0.144
  GMMC15CC0045               1.27       0.00       0.00       1.12       0.15       0.00       0.15        0.31     3.51   0.115
  GMMC15CC0046               1.27       0.00       0.00       1.12       0.14       0.00       0.14        0.14     1.54   0.113
  GMMC16RC0001               1.27       0.00       0.00       1.00       0.26       0.00       0.26        0.03     0.29   0.205
  GMMC16RC0002               1.27       0.00       0.00       1.00       0.26       0.00       0.26        0.04     0.41   0.205
  GMMC16RC0003               1.27       0.00       0.00       0.83       0.43       0.00       0.43        0.51     3.93   0.338
  GMMC16RC0005               1.27       0.00       0.00       0.98       0.28       0.00       0.28        0.27     2.99   0.221
  GMMC16RC0006               1.27       0.00       0.00       0.98       0.28       0.00       0.28        0.06     0.70   0.224
  GMMC16RC0007               1.27       0.00       0.00       0.13       1.11       0.00       1.11        0.12     1.02   0.876
  GMMC16RC0008               1.27       0.00       0.00       0.13       1.11       0.00       1.11        0.37     3.48   0.877
  GMMC16RC0009               1.27       0.00       0.00       0.99       0.27       0.00       0.27        0.04     0.43   0.215
  GMMC16RC0010               1.27       0.00       0.00       0.99       0.27       0.00       0.27        0.05     0.58   0.215
  GMMC16RC0011               1.27       0.00       0.00       0.76       0.50       0.00       0.50        0.03     0.29   0.392
  GMMC16RC0012               1.27       0.00       0.00       0.25       0.99       0.00       0.99        0.02     0.23   0.781
  GMMC16RC0013               1.27       0.00       0.00       0.64       0.62       0.00       0.62        0.04     0.40   0.489
  GMMC16RC0014               1.27       0.00       0.00       0.95       0.31       0.00       0.31        0.02     0.27   0.244
  GMMC16RC0015               1.27       0.00       0.00       0.63       0.62       0.00       0.62        0.36     3.00   0.486
  GMMC16RC0016               1.27       0.00       0.00       0.89       0.37       0.00       0.37        0.06     0.63   0.293
  GMMC16RC0017               1.27       0.00       0.00       0.89       0.37       0.00       0.37        0.02     0.19   0.293
  GMMC16RC0018               1.27       0.00       0.00       0.89       0.37       0.00       0.37        0.01     0.15   0.294
  GMMC16RC0019               1.27       0.00       0.00       0.89       0.37       0.00       0.37        0.01     0.12   0.294
  GMMC16RC0020               1.27       0.00       0.00       0.99       0.27       0.00       0.27        0.01     0.08   0.215
  GMMC16RC0021               1.27       0.00       0.00       1.00       0.26       0.00       0.26        0.01     0.06   0.205
  GMMC16RC0022               1.27       0.00       0.00       0.91       0.35       0.00       0.35        0.08     0.86   0.277
  GMMC16RC0023               1.27       0.00       0.00       0.97       0.29       0.00       0.29        0.20     2.13   0.230
  GMMC16RC0024               1.27       0.00       0.00       0.83       0.44       0.00       0.44        0.03     0.31   0.343
  GMMC16RC0025               1.27       0.00       0.00       0.89       0.37       0.00       0.37        0.02     0.19   0.293
  GMMC16RC0026               1.27       0.00       0.00       0.64       0.62       0.00       0.62        0.10     0.99   0.488
  GMMC16RC0027               1.27       0.00       0.00       0.64       0.62       0.00       0.62        0.00     0.04   0.487
  GMMC16RC0028               1.27       0.00       0.00       1.02       0.25       0.00       0.25        0.00     0.04   0.195
  GMMC16RC0029               1.27       0.00       0.00       1.02       0.25       0.00       0.25        0.01     0.06   0.196
  GMMC16RC0030               1.27       0.00       0.00       0.83       0.43       0.00       0.43        0.01     0.12   0.342
  GMMC16RC0031               1.27       0.00       0.00       0.95       0.31       0.00       0.31        0.01     0.08   0.244
  GMMC16RC0032               1.27       0.00       0.00       0.89       0.37       0.00       0.37        0.01     0.13   0.294
  GMMC16RC0033               1.27       0.00       0.00       0.95       0.31       0.00       0.31        0.05     0.56   0.244
  GMMC16RC0034               1.27       0.00       0.00       0.95       0.31       0.00       0.31        0.01     0.11   0.245
  GMMC16RC0035               1.27       0.00       0.00       0.99       0.27       0.00       0.27        0.00     0.05   0.215
  GMMC16RC0036               1.27       0.00       0.00       0.95       0.31       0.00       0.31        0.01     0.09   0.245
  GMMC16RC0037               1.27       0.00       0.00       1.26       0.01       0.00       0.01        0.00     0.00   0.010
  GMMC16RC0038               1.27       0.00       0.00       0.99       0.27       0.00       0.27        0.01     0.11   0.216
  GMMC16RC0039               1.27       0.00       0.00       0.95       0.31       0.00       0.31        0.01     0.06   0.244
  GMMC16RC0040               1.27       0.00       0.00       0.32       0.93       0.00       0.93        0.02     0.21   0.730
  GMMC16RC0041               1.27       0.00       0.00       0.78       0.48       0.00       0.48        0.05     0.43   0.378
  GMMC16RC0042               1.27       0.00       0.00       0.71       0.55       0.00       0.55        0.30     3.12   0.434
  GMMC16RC0043               1.27       0.00       0.00       0.82       0.44       0.00       0.44        0.01     0.12   0.350
  GMMC16RC0044               1.27       0.00       0.00       1.00       0.26       0.00       0.26        0.01     0.10   0.206
  GMMC16RC0045               1.27       0.00       0.00       0.98       0.28       0.00       0.28        0.02     0.20   0.220
  GMMC16RC0046               1.27       0.00       0.00       0.25       0.99       0.00       0.99        0.18     1.91   0.780
  GMMC16RC0047               1.27       0.00       0.00       0.81       0.45       0.00       0.45        0.14     1.18   0.354
  GMMC16RC0048               1.27       0.00       0.00       0.99       0.27       0.00       0.27        0.04     0.41   0.214
  GMMC16RC0049               1.27       0.00       0.00       0.96       0.30       0.00       0.30        0.11     1.23   0.238
  GMMC16RC0050               1.27       0.00       0.00       1.00       0.26       0.00       0.26        0.04     0.39   0.206
  GMMC16RC0051               1.27       0.00       0.00       0.63       0.63       0.00       0.63        0.04     0.42   0.493
  GMMC16RC0052               1.27       0.00       0.00       0.92       0.34       0.00       0.34        0.02     0.19   0.270
  GMMC16RC0053               1.27       0.00       0.00       0.77       0.48       0.00       0.48        0.15     1.51   0.380
  GMMC16RC0054               1.27       0.00       0.00       0.99       0.27       0.00       0.27        0.02     0.26   0.215
  GMMC16RC0055               1.27       0.00       0.00       0.82       0.44       0.00       0.44        0.33     3.59   0.343
  GMMC16RC0056               1.27       0.00       0.00       0.99       0.27       0.00       0.27        0.04     0.48   0.215
  GMMC16RC0057               1.27       0.00       0.00       0.98       0.28       0.00       0.28        0.06     0.71   0.224
  GMMC16RC0058               1.27       0.00       0.00       0.99       0.27       0.00       0.27        0.10     1.12   0.215
  GMMC17CC0001               1.27       0.00       0.00       1.12       0.15       0.00       0.15        0.07     0.77   0.116
  GMMC17CC0002               1.27       0.00       0.00       0.95       0.31       0.00       0.31        0.01     0.15   0.247
  GMMC17CC0003               1.27       0.00       0.00       0.76       0.50       0.00       0.50        0.06     0.67   0.391
  GMMC17CC0004               1.27       0.00       0.00       0.76       0.50       0.00       0.50        0.11     1.17   0.390
  GMMC17CC0005               1.27       0.00       0.00       0.93       0.33       0.00       0.33        0.14     1.56   0.260
  GMMC17CC0006               1.27       0.00       0.00       1.07       0.19       0.00       0.19        0.06     0.65   0.153
  GMMC17CC0007               1.27       0.00       0.00       1.07       0.20       0.00       0.20        0.02     0.26   0.158
  GMMC17CC0008               1.27       0.00       0.00       1.05       0.22       0.00       0.22        0.03     0.31   0.173
  GMMC17CC0009               1.27       0.00       0.00       1.11       0.16       0.00       0.16        0.02     0.17   0.123
  GMMC17CC0010               1.27       0.00       0.00       0.95       0.31       0.00       0.31        0.10     1.12   0.245
  GMMC17CC0011               1.27       0.00       0.00       1.07       0.20       0.00       0.20        0.01     0.09   0.157
  GMMC17CC0012               1.27       0.00       0.00       1.03       0.23       0.00       0.23        0.01     0.15   0.182
  GMMC17CC0013               1.27       0.00       0.00       1.05       0.21       0.00       0.21        0.01     0.12   0.167
  GMMC17CC0014               1.27       0.00       0.00       1.08       0.18       0.00       0.18        0.01     0.14   0.145
  GMMC17CC0015               1.27       0.00       0.00       1.07       0.19       0.00       0.19        0.01     0.13   0.152
  GMMC17CC0016               1.27       0.00       0.00       1.08       0.19       0.00       0.19        0.01     0.14   0.147
  GMMC17CC0017               1.27       0.00       0.00       0.88       0.38       0.00       0.38        0.04     0.45   0.298
  GMMC17CC0018               1.27       0.00       0.00       0.77       0.48       0.00       0.48        0.16     1.40   0.381
  GMMC17CC0019               1.27       0.00       0.00       0.93       0.33       0.00       0.33        0.05     0.50   0.258
  GMMC17CC0020               1.27       0.00       0.00       1.02       0.24       0.00       0.24        0.03     0.38   0.193
  GMMC17CC0021               1.27       0.00       0.00       1.07       0.19       0.00       0.19        0.08     0.92   0.151
  GMMC17CC0022               1.27       0.00       0.00       1.14       0.13       0.00       0.13        0.01     0.14   0.103
  GMMC17CC0023               1.27       0.00       0.00       1.10       0.17       0.00       0.17        0.01     0.13   0.134
  GMMC17CC0024               1.27       0.00       0.00       1.12       0.15       0.00       0.15        0.01     0.14   0.115
  GMMC17CC0025               1.27       0.00       0.00       1.12       0.15       0.00       0.15        0.01     0.08   0.115
  GMMC17CC0026               1.27       0.00       0.00       0.73       0.53       0.00       0.53        0.07     0.60   0.414
  GMMC17CC0027               1.27       0.00       0.00       0.92       0.34       0.00       0.34        0.04     0.48   0.272
  GMMC17CC0028               1.27       0.00       0.00       0.88       0.38       0.00       0.38        0.42     4.20   0.302
  GMMC17CC0029               1.27       0.00       0.00       1.04       0.23       0.00       0.23        0.10     1.06   0.180
  GMMC17CC0030               1.27       0.00       0.00       1.05       0.21       0.00       0.21        0.19     2.09   0.167
  GMMC17CC0031               1.27       0.00       0.00       1.08       0.19       0.00       0.19        0.07     0.73   0.147
  GMMC17CC0032               1.27       0.00       0.00       0.98       0.28       0.00       0.28        0.26     2.78   0.219
  GMMC17CC0033               1.27       0.00       0.00       0.76       0.50       0.00       0.50        0.32     2.65   0.393
  GMMC17CC0034               1.27       0.00       0.00       0.87       0.39       0.00       0.39        0.08     0.90   0.304
  GMMC17CC0035               1.27       0.00       0.00       1.06       0.21       0.00       0.21        0.04     0.42   0.162
  GMMC17CC0036               1.27       0.00       0.00       1.03       0.23       0.00       0.23        0.02     0.26   0.183
  GMMC17CC0037               1.27       0.00       0.00       1.10       0.16       0.00       0.16        0.03     0.33   0.130
  GMMC17CC0038               1.27       0.00       0.00       1.07       0.19       0.00       0.19        0.11     1.19   0.152
  GMMC17CC0039               1.27       0.00       0.00       1.07       0.19       0.00       0.19        0.04     0.39   0.153
  GMMC17CC0040               1.27       0.00       0.00       1.06       0.20       0.00       0.20        0.04     0.45   0.161
  GMMC17CC0041               1.27       0.00       0.00       0.96       0.30       0.00       0.30        0.22     2.18   0.240
  GMMC17CC0042               1.27       0.00       0.00       0.74       0.51       0.00       0.51        0.19     2.03   0.404
  GMMC17CC0043               1.27       0.00       0.00       0.80       0.46       0.00       0.46        0.25     2.58   0.364
  GMMC18CC0001               1.27       0.00       0.00       1.11       0.16       0.00       0.16        0.01     0.12   0.127
  GMMC18CC0002               1.27       0.00       0.00       1.08       0.18       0.00       0.19        0.03     0.36   0.147
  GMMC18CC0004               1.27       0.00       0.00       1.12       0.15       0.00       0.15        0.04     0.40   0.117
  GMMC18CC0005               1.27       0.00       0.00       1.08       0.19       0.00       0.19        0.05     0.52   0.148
  GMMC18CC0006               1.27       0.00       0.00       1.09       0.18       0.00       0.18        0.04     0.41   0.142
  GMMC18CC0007               1.27       0.00       0.00       0.99       0.27       0.00       0.27        0.03     0.33   0.214
  GMMC18CC0008               1.27       0.00       0.00       1.00       0.27       0.00       0.27        0.02     0.26   0.212
  GMMC18CC0009               1.27       0.00       0.00       0.98       0.28       0.00       0.29        0.01     0.09   0.227
  GMMC18CC0010               1.27       0.00       0.00       1.08       0.18       0.00       0.18        0.01     0.12   0.144
  GMMC18CC0011               1.27       0.00       0.00       1.05       0.21       0.00       0.21        0.02     0.19   0.166
  GMMC18CC0012               1.27       0.00       0.00       1.07       0.19       0.00       0.19        0.03     0.37   0.152
  GMMC18CC0013               1.27       0.00       0.00       1.05       0.22       0.00       0.22        0.01     0.09   0.173
  GMMC18CC0014               1.27       0.00       0.00       0.96       0.31       0.00       0.31        0.01     0.07   0.241
  GMMC18CC0015               1.27       0.00       0.00       1.08       0.18       0.00       0.18        0.01     0.08   0.143
  GMMC18CC0016               1.27       0.00       0.00       1.10       0.16       0.00       0.16        0.03     0.28   0.130
  GMMC18CC0017               1.27       0.00       0.00       1.06       0.21       0.00       0.21        0.02     0.24   0.163
  GMMC18CC0018               1.27       0.00       0.00       0.98       0.28       0.00       0.28        0.13     1.42   0.221
  GMMC18CC0019               1.27       0.00       0.00       1.02       0.25       0.00       0.25        0.02     0.22   0.196
  GMMC18CC0020               1.27       0.00       0.00       1.09       0.17       0.00       0.17        0.00     0.03   0.137
  GMMC18CC0021               1.27       0.00       0.00       0.94       0.33       0.00       0.33        0.02     0.21   0.257
  GMMC18CC0022               1.27       0.00       0.00       1.06       0.21       0.00       0.21        0.01     0.13   0.164
  GMMC18CC0023               1.27       0.00       0.00       1.04       0.23       0.00       0.23        0.05     0.51   0.179
  GMMC18CC0024               1.27       0.00       0.00       1.10       0.17       0.00       0.17        0.03     0.28   0.133
  GMMC18CC0025               1.27       0.00       0.00       1.06       0.20       0.00       0.20        0.03     0.29   0.158
  GMMC18CC0026               1.27       0.00       0.00       1.03       0.24       0.00       0.24        0.03     0.31   0.187
  GMMC18CC0027               1.27       0.00       0.00       1.06       0.21       0.00       0.21        0.09     0.99   0.162
  GMMC18CC0028               1.27       0.00       0.00       0.96       0.00       0.00       0.00        0.00     0.00   0.000
  GMMC18CC0029               1.27       0.00       0.00       0.94       0.33       0.00       0.33        0.03     0.33   0.256
  GMMC18CC0030               1.27       0.00       0.00       1.06       0.21       0.00       0.21        0.03     0.33   0.165
  GMMC18CC0031               1.27       0.00       0.00       1.04       0.23       0.00       0.23        0.11     1.17   0.177
  GMMC18CC0032               1.27       0.00       0.00       1.09       0.18       0.00       0.18        0.04     0.43   0.140
  GMMC18CC0033               1.27       0.00       0.00       0.97       0.00       0.00       0.00        0.00     0.00   0.000
  GMMC18CC0034               1.27       0.00       0.00       0.93       0.33       0.00       0.33        0.01     0.06   0.259
  GMMC18CC0035               1.27       0.00       0.00       0.97       0.29       0.00       0.29        0.02     0.19   0.231
  GMMC18CC0036               1.27       0.00       0.00       0.92       0.35       0.00       0.35        0.13     1.43   0.273
  GMMC18CC0037               1.27       0.00       0.00       1.06       0.20       0.00       0.20        0.01     0.15   0.160
  GMMC18CC0039               1.27       0.00       0.00       1.01       0.25       0.00       0.25        0.03     0.32   0.201
  GMMC18CC0040               1.27       0.00       0.00       1.09       0.18       0.00       0.18        0.07     0.78   0.142
  GMMC18CC0041               1.27       0.00       0.00       1.13       0.13       0.00       0.13        0.01     0.06   0.106
  GMMC18CC0042               1.27       0.00       0.00       1.09       0.17       0.00       0.17        0.01     0.15   0.136
  GMMC18CC0044               1.27       0.00       0.00       0.89       0.37       0.00       0.37        0.17     1.79   0.288
  GMMC18CC0045               1.27       0.00       0.00       1.14       0.13       0.00       0.13        0.00     0.01   0.103
  GMMC18CC0046               1.27       0.00       0.00       1.11       0.15       0.00       0.15        0.01     0.16   0.120
  GMMC18CC0047               1.27       0.00       0.00       1.11       0.16       0.00       0.16        0.02     0.17   0.123
  GMMC18CC0048               1.27       0.00       0.00       1.12       0.15       0.00       0.15        0.03     0.31   0.118
  GMMC18CC0049               1.27       0.00       0.00       0.95       0.31       0.00       0.31        0.07     0.73   0.243
  GMMC18CC0050               1.27       0.00       0.00       1.08       0.19       0.00       0.19        0.04     0.41   0.148
  GMMC18CC0051               1.27       0.00       0.00       1.13       0.14       0.00       0.14        0.01     0.11   0.109
  GMMC18CC0052               1.27       0.00       0.00       1.04       0.23       0.00       0.23        0.03     0.28   0.179
  GMMC18CC0053               1.27       0.00       0.00       0.86       0.41       0.00       0.41        0.12     1.35   0.319
  GMMC18CC0054               1.27       0.00       0.00       0.98       0.28       0.00       0.28        0.06     0.69   0.224
  GMMC18CC0055               1.27       0.00       0.00       1.08       0.18       0.00       0.18        0.02     0.27   0.144
  GMMC18CC0056               1.27       0.00       0.00       0.86       0.40       0.00       0.40        0.06     0.61   0.318
  GMMC18CC0057               1.27       0.00       0.00       1.13       0.13       0.00       0.13        0.00     0.05   0.104
  GMMC18CC0058               1.27       0.00       0.00       1.14       0.13       0.00       0.13        0.00     0.05   0.103
  GMMC18CC0059               1.27       0.00       0.00       1.08       0.19       0.00       0.19        0.01     0.13   0.149
  GMMC18CC0060               1.27       0.00       0.00       1.02       0.24       0.00       0.24        0.02     0.18   0.193
  GMMC18CC0061               1.27       0.00       0.00       1.11       0.16       0.00       0.16        0.03     0.31   0.122
  GMMC18CC0062               1.27       0.00       0.00       0.84       0.43       0.00       0.43        0.05     0.50   0.335
  GMMC18CC0063               1.27       0.00       0.00       0.92       0.24       0.00       0.24        0.07     0.04   0.190
  GMMC18CC0064               1.27       0.00       0.00       0.80       0.45       0.00       0.45        0.06     0.51   0.357
  GMMC18CC0065               1.27       0.00       0.00       0.92       0.35       0.00       0.35        0.02     0.27   0.272
  GMMC19CC0001               1.27       0.00       0.00       0.82       0.42       0.00       0.42        0.20     2.29   0.332
  GMMC19CC0002               1.27       0.00       0.00       0.70       0.54       0.00       0.54        0.04     0.42   0.423
  GMMC19CC0003               1.27       0.00       0.00       0.53       0.70       0.00       0.70        0.09     0.97   0.547
  GMMC19CC0004               1.27       0.00       0.00       0.99       0.27       0.00       0.27        0.05     0.55   0.212
  GMMC19CC0005               1.27       0.00       0.00       0.97       0.28       0.00       0.28        0.04     0.51   0.223
  GMMC19CC0006               1.27       0.00       0.00       0.82       0.42       0.00       0.42        0.12     1.38   0.334
  GMMC19CC0007               1.27       0.00       0.00       0.74       0.50       0.00       0.50        0.43     4.06   0.396
  GMMC19CC0008               1.27       0.00       0.00       0.93       0.32       0.00       0.32        0.02     0.18   0.253
  GMMC19CC0009               1.27       0.00       0.00       0.88       0.37       0.00       0.37        0.08     0.91   0.292
  GMMC19CC0010               1.27       0.00       0.00       0.92       0.33       0.00       0.33        0.02     0.17   0.260
  GMMC19CC0011               1.27       0.00       0.00       0.92       0.33       0.00       0.33        0.01     0.06   0.261
  GMMC19CC0012               1.27       0.00       0.00       1.00       0.26       0.00       0.26        0.01     0.11   0.201
  GMMC19CC0013               1.27       0.00       0.00       0.90       0.35       0.00       0.35        0.03     0.33   0.278
  GMMC19CC0014               1.27       0.00       0.00       0.67       0.57       0.00       0.57        0.03     0.30   0.446
  GMMC19CC0015               1.27       0.00       0.00       0.84       0.40       0.00       0.40        0.01     0.12   0.319
  GMMC19CC0016               1.27       0.00       0.00       0.75       0.49       0.00       0.49        0.20     2.17   0.388
  GMMC19CC0017               1.27       0.00       0.00       0.19       1.02       0.00       1.02        0.05     0.52   0.806
  GMMC19CC0018               1.27       0.00       0.00       0.78       0.47       0.00       0.47        0.04     0.42   0.367
  GMMC19CC0019               1.27       0.00       0.00       0.70       0.54       0.00       0.54        0.04     0.41   0.428
  GMMC19CC0020               1.27       0.00       0.00       0.73       0.51       0.00       0.51        0.02     0.20   0.404
  GMMC19CC0021               1.27       0.00       0.00       0.93       0.32       0.00       0.32        0.06     0.63   0.251
  GMMC19CC0022               1.27       0.00       0.00       0.66       0.58       0.00       0.58        0.01     0.11   0.457
  GMMC19CC0023               1.27       0.00       0.00       0.93       0.32       0.00       0.32        0.02     0.25   0.255
  GMMC19CC0024               1.27       0.00       0.00       0.95       0.31       0.00       0.31        0.07     0.83   0.242
  GMMC19CC0025               1.27       0.00       0.00       0.95       0.31       0.00       0.31        0.07     0.84   0.243
  GMMC19CC0026               1.27       0.00       0.00       0.96       0.29       0.00       0.29        0.03     0.37   0.229
  GMMC19CC0027               1.27       0.00       0.00       0.96       0.30       0.00       0.30        0.06     0.72   0.234
  GMMC19CC0028               1.27       0.00       0.00       0.79       0.45       0.00       0.45        0.05     0.61   0.356
  GMMC19CC0029               1.27       0.00       0.00       0.97       0.28       0.00       0.28        0.05     0.60   0.221
  GMMC19CC0030               1.27       0.00       0.00       0.92       0.33       0.00       0.33        0.01     0.14   0.260
  GMMC19CC0031               1.27       0.00       0.00       0.75       0.49       0.00       0.49        0.16     1.82   0.388
  GMMC19CC0032               1.27       0.00       0.00       0.73       0.52       0.00       0.52        0.02     0.22   0.408
  GMMC19CC0033               1.27       0.00       0.00       0.56       0.67       0.00       0.67        0.02     0.24   0.529
  GMMC19CC0034               1.27       0.00       0.00       0.98       0.28       0.00       0.28        0.02     0.27   0.218
  GMMC19CC0035               1.27       0.00       0.00       0.93       0.32       0.00       0.32        0.03     0.32   0.252
  GMMC19CC0036               1.27       0.00       0.00       0.60       0.64       0.00       0.64        0.04     0.47   0.502
  GMMC19CC0037               1.27       0.00       0.00       0.29       0.93       0.00       0.93        0.29     2.92   0.730
  GMMC19CC0038               1.27       0.00       0.00       0.63       0.61       0.00       0.61        0.16     1.79   0.478
  GMMC19CC0039               1.27       0.00       0.00       0.58       0.65       0.00       0.65        0.06     0.66   0.512
  GMMC19CC0040               1.27       0.00       0.00       0.79       0.45       0.00       0.45        0.03     0.37   0.358
  GMMC19CC0041               1.27       0.00       0.00       0.84       0.41       0.00       0.41        0.03     0.35   0.320
  GMMC19CC0042               1.27       0.00       0.00       0.90       0.35       0.00       0.35        0.01     0.12   0.276
  GMMC19CC0043               1.27       0.00       0.00       0.84       0.41       0.00       0.41        0.02     0.28   0.324
  GMMC19CC0044               1.27       0.00       0.00       0.76       0.48       0.00       0.48        0.03     0.40   0.380
  GMMC19CC0045               1.27       0.00       0.00       0.78       0.47       0.00       0.47        0.03     0.31   0.367
  GMMC19CC0046               1.27       0.00       0.00       0.81       0.43       0.00       0.43        0.18     1.93   0.341
  GMMC19CC0047               1.27       0.00       0.00       0.25       0.96       0.00       0.96        0.10     1.16   0.758
  GMMC19CC0048               1.27       0.00       0.00       0.80       0.44       0.00       0.44        0.14     1.51   0.348
  GMMC19CC0049               1.27       0.00       0.00       0.63       0.61       0.00       0.61        0.18     2.02   0.480
  GMMC19CC0050               1.27       0.00       0.00       0.44       0.79       0.00       0.79        0.10     1.15   0.618
  GMMC19CC0051               1.27       0.00       0.00       0.50       0.73       0.00       0.73        0.03     0.37   0.576
  GMMC19CC0052               1.27       0.00       0.00       0.53       0.70       0.00       0.70        0.04     0.43   0.555
  GMMC19CC0053               1.27       0.00       0.00       0.70       0.54       0.00       0.54        0.05     0.61   0.423
  GMMC19CC0054               1.27       0.00       0.00       0.56       0.68       0.00       0.68        0.02     0.24   0.534
  GMMC19CC0055               1.27       0.00       0.00       0.72       0.52       0.00       0.52        0.13     1.45   0.408
  GMMC19CC0056               1.27       0.00       0.00       0.21       1.00       0.00       1.00        0.05     0.56   0.791
  GMMC19CC0057               1.27       0.00       0.00       0.23       0.98       0.00       0.98        0.02     0.28   0.776
  GMMC19CC0058               1.27       0.00       0.00       0.78       0.47       0.00       0.47        0.04     0.45   0.368
  GMMC19CC0059               1.27       0.00       0.00       0.71       0.54       0.00       0.54        0.02     0.26   0.422
  GMMC19CC0060               1.27       0.00       0.00       0.85       0.40       0.00       0.40        0.01     0.15   0.314
  GMMC19CC0061               1.27       0.00       0.00       0.87       0.38       0.00       0.38        0.02     0.24   0.297
  GMMC19CC0062               1.27       0.00       0.00       0.87       0.38       0.00       0.38        0.06     0.71   0.298
  GMMC19CC0063               1.27       0.00       0.00       0.55       0.68       0.00       0.68        0.26     2.82   0.533
  GMMC19CC0064               1.27       0.00       0.00       0.66       0.58       0.00       0.58        0.04     0.49   0.459
  GMMC19CC0065               1.27       0.00       0.00       0.80       0.45       0.00       0.45        0.05     0.56   0.353
  GMMC19CC0066               1.27       0.00       0.00       1.00       0.26       0.00       0.26        0.01     0.12   0.205
  GMMC19CC0067               1.27       0.00       0.00       0.80       0.44       0.00       0.44        0.11     1.30   0.348
  GMMC19CC0068               1.27       0.00       0.00       0.37       0.85       0.00       0.85        0.12     1.34   0.670
  GMMC19CC0069               1.27       0.00       0.00       0.99       0.27       0.00       0.27        0.06     0.72   0.210
  GMMC19CC0070               1.27       0.00       0.00       0.99       0.27       0.00       0.27        0.05     0.53   0.212
  GMMC19CC0071               1.27       0.00       0.00       0.94       0.31       0.00       0.31        0.02     0.18   0.248
  GMMC19CC0072               1.27       0.00       0.00       1.00       0.25       0.00       0.25        0.02     0.22   0.200
  GMMC19CC0073               1.27       0.00       0.00       0.99       0.27       0.00       0.27        0.02     0.23   0.209
  GMMC19CC0074               1.27       0.00       0.00       1.00       0.25       0.00       0.25        0.03     0.30   0.199
  GMMC19CC0075               1.27       0.00       0.00       0.50       0.74       0.00       0.74        0.02     0.18   0.580
  GMMC19CC0076               1.27       0.00       0.00       0.84       0.41       0.00       0.41        0.04     0.48   0.324
  GMMC19CC0077               1.27       0.00       0.00       0.92       0.33       0.00       0.33        0.02     0.20   0.263
  GMMC19CC0078               1.27       0.00       0.00       0.80       0.45       0.00       0.45        0.18     1.91   0.353
  GMMC19CC0079               1.27       0.00       0.00       0.84       0.41       0.00       0.41        0.12     1.32   0.320
  GMMC19CC0080               1.27       0.00       0.00       0.80       0.45       0.00       0.45        0.05     0.52   0.351
  GMMC19CC0081               1.27       0.00       0.00       0.83       0.42       0.00       0.42        0.09     0.98   0.330
  GMMC19CC0082               1.27       0.00       0.00       0.92       0.33       0.00       0.33        0.04     0.46   0.263
  GMMC19CC0083               1.27       0.00       0.00       0.95       0.30       0.00       0.30        0.03     0.36   0.238
  GMMC19CC0084               1.27       0.00       0.00       0.86       0.39       0.00       0.39        0.02     0.19   0.307
  GMMC19CC0085               1.27       0.00       0.00       0.98       0.28       0.00       0.28        0.04     0.47   0.218
  GMMC19CC0086               1.27       0.00       0.00       0.89       0.36       0.00       0.36        0.05     0.54   0.281
  GMMC19CC0087               1.27       0.00       0.00       0.74       0.50       0.00       0.50        0.09     0.96   0.396
  GMMC19CC0088               1.27       0.00       0.00       1.00       0.25       0.00       0.25        0.02     0.28   0.200
  GMMC19CC0089               1.27       0.00       0.00       0.90       0.35       0.00       0.35        0.04     0.40   0.277
  GMMC19CC0090               1.27       0.00       0.00       1.00       0.25       0.00       0.25        0.00     0.01   0.199
  GMMC19CC0091               1.27       0.00       0.00       0.84       0.40       0.00       0.40        0.03     0.37   0.319
  GMMC19CC0092               1.27       0.00       0.00       1.00       0.26       0.00       0.26        0.01     0.07   0.203
  GMMC19CC0093               1.27       0.00       0.00       0.78       0.46       0.00       0.46        0.05     0.62   0.365
  GMMC19CC0094               1.27       0.00       0.00       0.63       0.60       0.00       0.60        0.18     1.88   0.474
  GMMC19CC0095               1.27       0.00       0.00       0.83       0.42       0.00       0.42        0.05     0.61   0.328
  GMMC19CC0096               1.27       0.00       0.00       0.63       0.60       0.00       0.60        0.02     0.24   0.476
  GMMC19CC0097               1.27       0.00       0.00       0.63       0.61       0.00       0.61        0.02     0.23   0.477
  GMMC19CC0098               1.27       0.00       0.00       0.85       0.40       0.00       0.40        0.07     0.78   0.314
  GMMC19CC0099               1.27       0.00       0.00       0.99       0.27       0.00       0.27        0.03     0.31   0.210
  GMMC19CC0100               1.27       0.00       0.00       0.69       0.55       0.00       0.55        0.02     0.27   0.437
  GMMC19CC0101               1.27       0.00       0.00       0.89       0.36       0.00       0.36        0.01     0.13   0.286
  GMMC19CC0102               1.27       0.00       0.00       0.72       0.52       0.00       0.52        0.16     1.76   0.412
  GMMC19CC0103               1.27       0.00       0.00       0.63       0.61       0.00       0.61        0.02     0.27   0.477
  GMMC19CC0104               1.27       0.00       0.00       0.69       0.55       0.00       0.55        0.02     0.22   0.432
  GMMC19CC0105               1.27       0.00       0.00       0.89       0.36       0.00       0.36        0.01     0.08   0.284
  GMMC19CC0106               1.27       0.00       0.00       0.82       0.43       0.00       0.43        0.01     0.15   0.335
  GMMC19CC0107               1.27       0.00       0.00       0.86       0.39       0.00       0.39        0.01     0.15   0.304
  GMMC19CC0108               1.27       0.00       0.00       0.69       0.55       0.00       0.55        0.02     0.25   0.437
  GMMC19CC0109               1.27       0.00       0.00       0.64       0.60       0.00       0.60        0.09     0.98   0.470
  GMMC19CC0110               1.27       0.00       0.00       0.84       0.41       0.00       0.41        0.02     0.20   0.322
  GMMC19CC0111               1.27       0.00       0.00       0.78       0.46       0.00       0.46        0.02     0.26   0.366
  GMMC19CC0112               1.27       0.00       0.00       0.86       0.39       0.00       0.39        0.04     0.44   0.308
  GMMC20CC0001               1.27       0.00       0.00       1.08       0.18       0.00       0.18        0.03     0.35   0.140
  GMMC20CC0002               1.27       0.00       0.00       0.94       0.31       0.00       0.31        0.11     1.27   0.243
  GMMC20CC0003               1.27       0.00       0.00       0.93       0.32       0.00       0.32        0.04     0.44   0.254
  GMMC20CC0004               1.27       0.00       0.00       1.06       0.20       0.00       0.20        0.03     0.32   0.160
  GMMC20CC0005               1.27       0.00       0.00       1.04       0.22       0.00       0.22        0.02     0.20   0.174
  GMMC20CC0006               1.27       0.00       0.00       1.11       0.15       0.00       0.15        0.01     0.11   0.120
  GMMC20CC0007               1.27       0.00       0.00       1.05       0.21       0.00       0.21        0.02     0.18   0.167
  GMMC20CC0008               1.27       0.00       0.00       1.11       0.15       0.00       0.15        0.00     0.03   0.120
  GMMC20CC0009               1.27       0.00       0.00       1.09       0.17       0.00       0.17        0.02     0.17   0.135
  GMMC20CC0010               1.27       0.00       0.00       1.07       0.19       0.00       0.19        0.01     0.14   0.147
  GMMC20CC0011               1.27       0.00       0.00       1.06       0.20       0.00       0.20        0.04     0.46   0.155
  GMMC20CC0012               1.27       0.00       0.00       1.11       0.15       0.00       0.15        0.00     0.02   0.119
  GMMC20CC0013               1.27       0.00       0.00       1.03       0.22       0.00       0.22        0.01     0.13   0.177
  GMMC20CC0014               1.27       0.00       0.00       0.76       0.48       0.00       0.48        0.09     1.02   0.378
  GMMC20CC0015               1.27       0.00       0.00       1.11       0.15       0.00       0.15        0.02     0.24   0.120
  GMMC20CC0016               1.27       0.00       0.00       0.98       0.27       0.00       0.27        0.13     1.50   0.215
  GMMC20CC0017               1.27       0.00       0.00       1.00       0.25       0.00       0.25        0.07     0.80   0.200
  GMMC20CC0018               1.27       0.00       0.00       1.10       0.16       0.00       0.16        0.02     0.27   0.126
  GMMC20CC0019               1.27       0.00       0.00       1.08       0.18       0.00       0.18        0.02     0.17   0.143
  GMMC20CC0020               1.27       0.00       0.00       1.05       0.21       0.00       0.21        0.04     0.51   0.168
  GMMC20CC0021               1.27       0.00       0.00       0.91       0.35       0.00       0.35        0.03     0.33   0.273
  GMMC20CC0022               1.27       0.00       0.00       1.02       0.23       0.00       0.23        0.02     0.28   0.185
  GMMC20CC0023               1.27       0.00       0.00       1.09       0.17       0.00       0.17        0.01     0.17   0.132
  GMMC20CC0024               1.27       0.00       0.00       1.09       0.17       0.00       0.17        0.01     0.16   0.137
  GMMC20CC0025               1.27       0.00       0.00       1.11       0.15       0.00       0.15        0.00     0.01   0.119
  GMMC20CC0026               1.27       0.00       0.00       1.09       0.17       0.00       0.17        0.04     0.49   0.134
  GMMC20CC0027               1.27       0.00       0.00       1.11       0.15       0.00       0.15        0.01     0.12   0.120
  GMMC20CC0028               1.27       0.00       0.00       1.10       0.16       0.00       0.16        0.02     0.25   0.129
  GMMC20CC0029               1.27       0.00       0.00       1.10       0.16       0.00       0.16        0.07     0.74   0.124
  GMMC20CC0030               1.27       0.00       0.00       1.09       0.17       0.00       0.17        0.01     0.14   0.133
  GMMC20CC0031               1.27       0.00       0.00       1.11       0.15       0.00       0.15        0.12     1.34   0.120
  GMMC20CC0032               1.27       0.00       0.00       0.96       0.30       0.00       0.30        0.07     0.82   0.233
  GMMC20CC0033               1.27       0.00       0.00       1.06       0.20       0.00       0.20        0.02     0.17   0.154
  GMMC20CC0034               1.27       0.00       0.00       0.66       0.58       0.00       0.58        0.18     1.97   0.454
  GMMC20CC0035               1.27       0.00       0.00       1.08       0.18       0.00       0.18        0.02     0.24   0.141
  GMMC22CC0001               1.27       0.00       0.00       0.70       0.55       0.00       0.55        0.24     2.50   0.437
  GMMC22CC0002               1.27       0.00       0.00       0.66       0.60       0.00       0.60        0.02     0.18   0.471
  GMMC22CC0003               1.27       0.00       0.00       0.83       0.43       0.00       0.43        0.12     1.18   0.339
  GMMC22CC0006               1.27       0.00       0.00       0.67       0.58       0.00       0.58        0.59     4.88   0.460
  GMMC22CC0007               1.27       0.00       0.00       0.57       0.68       0.00       0.68        1.64    13.10   0.533
  GMMC22CC0008               1.27       0.00       0.00       0.73       0.53       0.00       0.53        1.71    14.65   0.417
  GMMC22CC0009               1.27       0.00       0.00       0.79       0.47       0.00       0.47        0.37     3.32   0.367
  GMMC22CC0010               1.27       0.00       0.00       0.76       0.50       0.00       0.50        0.33     2.97   0.392
  GMMC22CC0011               1.27       0.00       0.00       0.78       0.48       0.00       0.48        0.95     7.21   0.376
  GMMC22CC0012               1.27       0.00       0.00       0.65       0.61       0.00       0.61        0.21     2.13   0.477
  GMMC22CC0013               1.27       0.00       0.00       0.30       0.94       0.00       0.94        0.33     3.29   0.744
  GMMC22CC0014               1.27       0.00       0.00       0.35       0.90       0.00       0.90        0.15     1.63   0.708
  GMMC22CC0015               1.27       0.00       0.00       0.46       0.79       0.00       0.79        0.01     0.10   0.625
  GMMC22CC0016               1.27       0.00       0.00       0.30       0.95       0.00       0.95        0.02     0.24   0.749
  GMMC22CC0017               1.27       0.00       0.00       0.56       0.69       0.00       0.69        0.27     2.88   0.544
  GMMC22CC0018               1.27       0.00       0.00       0.27       0.97       0.00       0.97        0.06     0.65   0.767
  GMMC22CC0019               1.27       0.00       0.00       0.48       0.77       0.00       0.77        0.23     2.23   0.609
  GMMC22CC0020               1.27       0.00       0.00       0.57       0.68       0.00       0.68        0.11     1.16   0.535
  GMMC22CC0021               1.27       0.00       0.00       0.62       0.63       0.00       0.63        0.06     0.59   0.497
  GMMC22CC0022               1.27       0.00       0.00       0.79       0.47       0.00       0.47        0.04     0.39   0.366
  GMMC22CC0023               1.27       0.00       0.00       0.16       1.08       0.00       1.08        0.34     3.19   0.853
  GMMC22CC0024               1.27       0.00       0.00       0.58       0.67       0.00       0.67        0.05     0.38   0.526
  GMMC22CC0025               1.27       0.00       0.00       0.79       0.47       0.00       0.47        0.04     0.39   0.367
  GMMC22CC0026               1.27       0.00       0.00       0.60       0.66       0.00       0.66        0.02     0.27   0.518
  GMMC22CC0027               1.27       0.00       0.00       0.74       0.52       0.00       0.52        0.03     0.38   0.408
  GMMC22CC0028               1.27       0.00       0.00       0.35       0.90       0.00       0.90        0.66     5.29   0.705
  GMMC22CC0030               1.27       0.00       0.00       0.68       0.58       0.00       0.58        0.16     1.61   0.456
  GMMC22CC0031               1.27       0.00       0.00       0.61       0.65       0.00       0.65        0.24     2.60   0.511
  GMMC22CC0032               1.27       0.00       0.00       0.66       0.59       0.00       0.59        0.06     0.69   0.466
  GMMC22CC0033               1.27       0.00       0.00       0.48       0.77       0.00       0.77        0.14     1.49   0.608
  GMMC22CC0034               1.27       0.00       0.00       0.79       0.47       0.00       0.47        0.04     0.41   0.368
  GMMC22CC0035               1.27       0.00       0.00       0.35       0.89       0.00       0.89        0.54     4.55   0.704
  GMMC22CC0036               1.27       0.00       0.00       0.65       0.60       0.00       0.60        0.32     3.24   0.475
  GMMC22CC0037               1.27       0.00       0.00       0.35       0.89       0.00       0.89        0.26     2.63   0.704
  GMMC22CC0039               1.27       0.00       0.00       0.17       1.07       0.00       1.07        1.63    13.95   0.842
  GMMC22CC0040               1.27       0.00       0.00       0.33       0.91       0.00       0.91        0.58     5.03   0.718
  GMMC22CC0042               1.27       0.00       0.00       0.23       1.01       0.00       1.01        0.57     4.16   0.793
  GMMC22CC0043               1.27       0.00       0.00       0.86       0.40       0.00       0.40        0.11     1.16   0.316
  GMMC22CC0044               1.27       0.00       0.00       0.85       0.41       0.00       0.41        0.11     1.16   0.322
  GMMC22CC0045               1.27       0.00       0.00       0.84       0.42       0.00       0.42        0.45     4.48   0.330
  GMMC22CC0046               1.27       0.00       0.00       0.27       0.98       0.00       0.98        0.22     2.03   0.770
  GMMC22CC0047               1.27       0.00       0.00       0.58       0.68       0.00       0.68        0.10     1.11   0.534
  GMMC22CC0048               1.27       0.00       0.00       0.69       0.56       0.00       0.56        0.09     0.96   0.443
  GMMC22CC0049               1.27       0.00       0.00       0.54       0.71       0.00       0.71        0.06     0.71   0.560
  GMMC22CC0050               1.27       0.00       0.00       0.47       0.78       0.00       0.78        0.11     1.17   0.615
  GMMC22CC0051               1.27       0.00       0.00       0.60       0.65       0.00       0.65        0.17     1.64   0.515
  GMMC22CC0052               1.27       0.00       0.00       0.77       0.49       0.00       0.49        0.07     0.77   0.384
  GMMC22CC0053               1.27       0.00       0.00       0.87       0.39       0.00       0.39        0.15     1.65   0.307
  GMMC22CC0054               1.27       0.00       0.00       0.36       0.89       0.00       0.89        1.40    10.58   0.698
  GMOR3CC0002                1.27       0.00       0.00       1.08       0.18       0.00       0.18        0.05     0.54   0.141
  GMOR3CC0003                1.27       0.00       0.00       0.76       0.48       0.00       0.48        0.15     1.71   0.378
  GMOR3CC0004                1.27       0.00       0.00       0.89       0.36       0.00       0.36        0.27     3.06   0.285
  GMOR3CC0005                1.27       0.00       0.00       0.95       0.31       0.00       0.31        0.11     1.28   0.242
  GMOR3CC0006                1.27       0.00       0.00       0.61       0.62       0.00       0.62        0.71     8.11   0.490
  GMOR3CC0007                1.27       0.00       0.00       1.00       0.25       0.00       0.25        0.12     1.34   0.199
  GMOR3CC0008                1.27       0.00       0.00       0.65       0.59       0.00       0.59        0.17     1.92   0.461
  GMOR3CC0009                1.27       0.00       0.00       0.31       0.91       0.00       0.91        0.15     1.65   0.714
  GMOR3CC0010                1.27       0.00       0.00       0.81       0.44       0.00       0.44        0.03     0.39   0.348
  GMOR3CC0011                1.27       0.00       0.00       0.54       0.70       0.00       0.70        0.24     2.74   0.548
  GMOR3CC0012                1.27       0.00       0.00       0.49       0.74       0.00       0.74        0.52     5.97   0.584
  GMOR3CC0013                1.27       0.00       0.00       0.49       0.74       0.00       0.74        0.50     5.65   0.584
  GMOR3CC0014                1.27       0.00       0.00       0.33       0.90       0.00       0.90        0.71     8.09   0.705
  GMOR3CC0017                1.27       0.00       0.00       0.32       0.90       0.00       0.90        0.08     0.97   0.712
  GMOR3CC0018                1.27       0.00       0.00       0.32       0.90       0.00       0.90        1.11    12.52   0.711
  GMOR3CC0019                1.27       0.00       0.00       0.54       0.70       0.00       0.70        0.19     2.19   0.548
  GMOR3CC0020                1.27       0.00       0.00       0.54       0.70       0.00       0.70        0.35     3.93   0.548
  GMOR3CC0021                1.27       0.00       0.00       0.33       0.90       0.00       0.90        0.06     0.66   0.707
  GMOR3CC0022                1.27       0.00       0.00       0.33       0.90       0.00       0.90        0.28     3.16   0.707
  GMOR3CC0023                1.27       0.00       0.00       0.33       0.90       0.00       0.90        0.05     0.52   0.707
  GMOR3CC0024                1.27       0.00       0.00       0.33       0.90       0.00       0.90        0.22     2.52   0.707
  GMOR3CC0025                1.27       0.00       0.00       0.33       0.90       0.00       0.90        0.11     1.25   0.706
  GMOR3CC0026                1.27       0.00       0.00       0.33       0.90       0.00       0.90        0.56     6.34   0.706
  GMOR3CC0027                1.27       0.00       0.00       0.30       0.92       0.00       0.92        0.32     3.60   0.726
  GMOR3CC0028                1.27       0.00       0.00       0.30       0.92       0.00       0.92        0.51     5.82   0.727
  GMOR3CC0029                1.27       0.00       0.00       0.30       0.92       0.00       0.92        0.13     1.53   0.726
  GMOR3CC0030                1.27       0.00       0.00       0.82       0.42       0.00       0.42        0.28     3.16   0.333
  GMOR3CC0031                1.27       0.00       0.00       0.73       0.51       0.00       0.51        0.05     0.59   0.400
  GMOR3CC0032                1.27       0.00       0.00       0.82       0.42       0.00       0.42        0.10     1.15   0.334
  GMOR3CC0033                1.27       0.00       0.00       0.83       0.42       0.00       0.42        0.37     4.16   0.328
  GMOR3CC0034                1.27       0.00       0.00       0.82       0.42       0.00       0.42        0.04     0.43   0.333
  GMOR3CC0035                1.27       0.00       0.00       0.99       0.27       0.00       0.27        0.22     2.53   0.209
  GMOR3CC0036                1.27       0.00       0.00       0.99       0.26       0.00       0.26        0.10     1.14   0.209
  GMOR3CC0043                1.27       0.00       0.00       0.73       0.52       0.00       0.52        0.32     3.59   0.406
  GMOR3CC0044                1.27       0.00       0.00       0.95       0.31       0.00       0.31        0.15     1.71   0.242
  GMOR3CC0045                1.27       0.00       0.00       0.91       0.34       0.00       0.34        0.07     0.75   0.266
  GMOR3CC0047                1.27       0.00       0.00       0.83       0.41       0.00       0.41        0.12     1.40   0.325
  GMOR3CC0048                1.27       0.00       0.00       0.83       0.41       0.00       0.41        0.05     0.62   0.325
  GMOR3CC0049                1.27       0.00       0.00       0.83       0.41       0.00       0.41        0.12     1.32   0.325
  GMOR3CC0050                1.27       0.00       0.00       1.00       0.26       0.00       0.26        0.28     3.17   0.204
  GMOR3CC0051                1.27       0.00       0.00       0.83       0.41       0.00       0.41        0.68     7.75   0.326
  GMOR3CC0052                1.27       0.00       0.00       0.30       0.92       0.00       0.92        0.55     6.26   0.727
  GMOR3CC0053                1.27       0.00       0.00       0.31       0.90       0.00       0.90        0.60     5.72   0.711
  GMOR3CC0054                1.27       0.00       0.00       0.83       0.41       0.00       0.41        0.56     6.27   0.327
  GMOR3CC0055                1.27       0.00       0.00       0.64       0.60       0.00       0.60        1.01    11.47   0.471
  GMMR4CC0001                1.27       0.00       0.00       0.82       0.43       0.00       0.43        0.04     0.43   0.337
  GMMR4CC0002                1.27       0.00       0.00       0.83       0.41       0.00       0.41        0.05     0.57   0.325
  GMMR4CC0003                1.27       0.00       0.00       0.66       0.58       0.00       0.58        0.02     0.28   0.457
  GMMR4CC0004                1.27       0.00       0.00       0.90       0.35       0.00       0.35        0.03     0.32   0.274
  GMMR4CC0005                1.27       0.00       0.00       0.89       0.36       0.00       0.36        0.03     0.33   0.282
  GMMR4CC0006                1.27       0.00       0.00       0.87       0.38       0.00       0.38        0.04     0.43   0.300
  GMMR4CC0007                1.27       0.00       0.00       0.86       0.39       0.00       0.39        0.04     0.41   0.305
  GMMR4CC0008                1.27       0.00       0.00       0.82       0.43       0.00       0.43        0.07     0.71   0.338
  GMMR4CC0009                1.27       0.00       0.00       0.77       0.48       0.00       0.48        0.03     0.38   0.374
  GMMR4CC0010                1.27       0.00       0.00       0.81       0.44       0.00       0.44        0.03     0.31   0.343
  GMMR4CC0011                1.27       0.00       0.00       0.68       0.56       0.00       0.56        0.11     1.20   0.439
  GMMR4CC0012                1.27       0.00       0.00       0.58       0.65       0.00       0.65        0.13     1.41   0.516
  GMMR4CC0013                1.27       0.00       0.00       0.84       0.41       0.00       0.41        0.12     1.28   0.322
  GMMR4CC0014                1.27       0.00       0.00       0.78       0.46       0.00       0.46        0.07     0.74   0.365
  GMMR4CC0015                1.27       0.00       0.00       0.47       0.76       0.00       0.76        0.06     0.61   0.597
  GMMR4CC0016                1.27       0.00       0.00       0.61       0.62       0.00       0.62        0.06     0.63   0.489
  GMMR4CC0017                1.27       0.00       0.00       1.09       0.17       0.00       0.17        0.05     0.60   0.134
  GMMR4CC0018                1.27       0.00       0.00       1.00       0.25       0.00       0.25        0.06     0.71   0.199
  GMMR4CC0019                1.27       0.00       0.00       1.00       0.26       0.00       0.26        0.06     0.69   0.203
  GMMR4CC0020                1.27       0.00       0.00       0.97       0.29       0.00       0.29        0.08     0.86   0.226
  GMMR4CC0021                1.27       0.00       0.00       0.98       0.27       0.00       0.27        0.08     0.88   0.213
  GMMR4CC0022                1.27       0.00       0.00       0.99       0.26       0.00       0.26        0.80     8.81   0.208
  GMMR4CC0023                1.27       0.00       0.00       1.00       0.25       0.00       0.25        0.03     0.33   0.199
  GMMR4CC0024                1.27       0.00       0.00       1.00       0.25       0.00       0.25        0.08     0.96   0.200
  GMMR4CC0025                1.27       0.00       0.00       1.00       0.25       0.00       0.25        0.10     1.12   0.200
  GMMR4CC0026                1.27       0.00       0.00       0.73       0.52       0.00       0.52        0.75     8.55   0.406
  GMMR4CC0027                1.27       0.00       0.00       0.51       0.72       0.00       0.72        0.30     3.38   0.568
  GMMR4CC0028                1.27       0.00       0.00       0.73       0.51       0.00       0.51        0.21     2.14   0.399
  GMMR4CC0029                1.27       0.00       0.00       0.82       0.43       0.00       0.43        0.07     0.82   0.336
  GMMR4CC0030                1.27       0.00       0.00       1.00       0.25       0.00       0.25        0.03     0.34   0.199
  GMMR4CC0031                1.27       0.00       0.00       0.78       0.46       0.00       0.46        0.04     0.51   0.362
  GMMR4CC0032                1.27       0.00       0.00       0.96       0.30       0.00       0.30        0.12     1.39   0.234
  GMMR4CC0033                1.27       0.00       0.00       0.45       0.78       0.00       0.78        0.21     2.20   0.612
  GMMR4CC0034                1.27       0.00       0.00       0.91       0.35       0.00       0.35        0.01     0.12   0.272
  GMMR4CC0035                1.27       0.00       0.00       0.90       0.35       0.00       0.35        0.05     0.61   0.277
  GMMR4CC0036                1.27       0.00       0.00       0.86       0.39       0.00       0.39        0.09     0.96   0.309
  GMMR4CC0037                1.27       0.00       0.00       0.96       0.30       0.00       0.30        0.04     0.47   0.235
  GMMR4CC0038                1.27       0.00       0.00       0.92       0.33       0.00       0.33        0.05     0.51   0.260
  GMMR4CC0039                1.27       0.00       0.00       0.98       0.28       0.00       0.28        0.05     0.60   0.219
  GMMR4CC0040                1.27       0.00       0.00       0.97       0.28       0.00       0.28        0.13     1.43   0.222
  GMMR4CC0041                1.27       0.00       0.00       0.93       0.32       0.00       0.32        0.11     1.21   0.252
  GMMR4CC0042                1.27       0.00       0.00       0.33       0.89       0.00       0.89        0.20     1.71   0.697
  GMMR4CC0043                1.27       0.00       0.00       0.72       0.52       0.00       0.52        0.03     0.32   0.408
  GMMR4CC0044                1.27       0.00       0.00       0.81       0.44       0.00       0.44        0.03     0.31   0.346
  GMMR4CC0045                1.27       0.00       0.00       0.75       0.49       0.00       0.49        0.07     0.83   0.386
  GMMR4CC0046                1.27       0.00       0.00       0.87       0.38       0.00       0.38        0.04     0.43   0.301
  GMMR4CC0047                1.27       0.00       0.00       0.92       0.33       0.00       0.33        0.05     0.62   0.261
  GMMR4CC0048                1.27       0.00       0.00       0.96       0.29       0.00       0.29        0.05     0.55   0.228
  GMMR4CC0049                1.27       0.00       0.00       0.95       0.31       0.00       0.31        0.05     0.61   0.241
  GMMR4CC0050                1.27       0.00       0.00       0.82       0.42       0.00       0.42        0.18     2.04   0.334
  GMMR4CC0051                1.27       0.00       0.00       0.76       0.49       0.00       0.49        0.10     1.16   0.385
  GMMR4CC0052                1.27       0.00       0.00       0.49       0.74       0.00       0.74        0.21     2.21   0.580
  GMRR8CC0001                1.27       0.00       0.00       1.00       0.24       0.00       0.24        0.01     0.16   0.190
  GMRR8CC0002                1.27       0.00       0.00       1.00       0.24       0.00       0.24        0.03     0.30   0.190
  GMRR8CC0003                1.27       0.00       0.00       1.00       0.24       0.00       0.24        0.03     0.35   0.190
  GMRR8CC0004                1.27       0.00       0.00       0.82       0.41       0.00       0.41        0.04     0.42   0.325
  GMRR8CC0005                1.27       0.00       0.00       1.00       0.24       0.00       0.24        0.01     0.12   0.190
  GMRR8CC0006                1.27       0.00       0.00       1.00       0.24       0.00       0.24        0.04     0.50   0.191
  GMRR8CC0007                1.27       0.00       0.00       1.00       0.24       0.00       0.24        0.10     1.17   0.191
  GMRR8CC0008                1.27       0.00       0.00       0.87       0.36       0.00       0.36        0.14     1.61   0.286
  GMRR8CC0009                1.27       0.00       0.00       1.00       0.24       0.00       0.24        0.03     0.35   0.191
  GMRR8CC0010                1.27       0.00       0.00       0.99       0.25       0.00       0.25        0.34     4.04   0.199
  GMRR8CC0011                1.27       0.00       0.00       0.78       0.44       0.00       0.44        0.60     7.17   0.348
  GMRR8CC0012                1.27       0.00       0.00       1.00       0.25       0.00       0.25        0.22     2.63   0.195
  GMRR8CC0013                1.27       0.00       0.00       0.98       0.26       0.00       0.26        0.06     0.66   0.208
  GMRR8CC0015                1.27       0.00       0.00       0.77       0.45       0.00       0.45        0.16     1.85   0.355
  GMRR8CC0016                1.27       0.00       0.00       1.00       0.24       0.00       0.24        0.05     0.63   0.191
  GMRR8CC0018                1.27       0.00       0.00       1.00       0.24       0.00       0.24        0.05     0.56   0.190
  GMRR8CC0019                1.27       0.00       0.00       1.00       0.24       0.00       0.24        0.03     0.34   0.191
  GMRR8CC0020                1.27       0.00       0.00       0.98       0.26       0.00       0.26        0.09     1.12   0.205
  GMRR8CC0021                1.27       0.00       0.00       1.00       0.24       0.00       0.24        0.03     0.35   0.191
  GMRR8CC0022                1.27       0.00       0.00       1.00       0.25       0.00       0.25        0.03     0.36   0.193
  GMRR8CC0023                1.27       0.00       0.00       1.00       0.24       0.00       0.24        0.00     0.04   0.190
  GMRR8CC0024                1.27       0.00       0.00       0.79       0.43       0.00       0.43        0.05     0.59   0.339
  GMRR8CC0025                1.27       0.00       0.00       0.86       0.37       0.00       0.37        0.02     0.28   0.289
  GMRR8CC0026                1.27       0.00       0.00       0.95       0.29       0.00       0.29        1.30    14.76   0.231
  GMRR8CC0027                1.27       0.00       0.00       0.80       0.43       0.00       0.43        1.21    13.55   0.336
  GMRR8CC0028                1.27       0.00       0.00       0.91       0.33       0.00       0.33        0.24     2.86   0.257
  GMRR8CC0029                1.27       0.00       0.00       0.91       0.33       0.00       0.33        0.06     0.66   0.261
  GMRR8CC0030                1.27       0.00       0.00       1.00       0.24       0.00       0.24        0.02     0.30   0.190
  GMRR8CC0031                1.27       0.00       0.00       0.26       0.92       0.00       0.92        0.14     1.61   0.725
  GMRR8CC0014                1.27       0.00       0.00       1.00       0.24       0.00       0.24        0.04     0.43   0.191
  GMRR9CC0001                1.27       0.00       0.00       0.90       0.34       0.00       0.34        0.06     0.74   0.269
  GMRR9CC0002                1.27       0.00       0.00       0.91       0.34       0.00       0.34        0.02     0.28   0.265
  GMRR9CC0003                1.27       0.00       0.00       1.00       0.25       0.00       0.25        0.02     0.27   0.196
  GMRR9CC0004                1.27       0.00       0.00       0.91       0.33       0.00       0.33        0.10     1.14   0.264
  GMRR9CC0005                1.27       0.00       0.00       0.91       0.34       0.00       0.34        0.03     0.36   0.266
  GMRR9CC0006                1.27       0.00       0.00       0.26       0.94       0.00       0.94        0.52     4.66   0.740
  GMRR9CC0009                1.27       0.00       0.00       0.89       0.35       0.00       0.35        0.04     0.46   0.277
  GMRR9CC0011                1.27       0.00       0.00       0.25       0.94       0.00       0.94        1.74    20.08   0.744
  GMRR9CC0012                1.27       0.00       0.00       0.60       0.62       0.00       0.62        0.12     1.35   0.486
  GMRR9CC0013                1.27       0.00       0.00       0.85       0.40       0.00       0.40        0.03     0.33   0.311
  GMRR9CC0014                1.27       0.00       0.00       0.99       0.26       0.00       0.26        0.14     1.59   0.203
  GMRR9CC0015                1.27       0.00       0.00       0.97       0.28       0.00       0.28        0.09     0.99   0.221
  GMRR9CC0016                1.27       0.00       0.00       0.87       0.37       0.00       0.37        0.24     2.75   0.291
  GMRR9CC0017                1.27       0.00       0.00       0.67       0.56       0.00       0.56        0.32     3.38   0.440
  GMRR9CC0018                1.27       0.00       0.00       1.00       0.25       0.00       0.25        0.02     0.23   0.197
  GMRR9CC0019                1.27       0.00       0.00       1.00       0.25       0.00       0.25        0.03     0.40   0.197
  GMRR9CC0020                1.27       0.00       0.00       0.68       0.55       0.00       0.55        0.18     2.03   0.433
  GMRR9CC0021                1.27       0.00       0.00       0.82       0.42       0.00       0.42        0.81     8.11   0.332
  GMRR9CC0022                1.27       0.00       0.00       0.99       0.26       0.00       0.26        0.03     0.31   0.208
  GMRR9CC0023                1.27       0.00       0.00       0.56       0.66       0.00       0.66        0.06     0.72   0.520
  GMRR9CC0024                1.27       0.00       0.00       0.89       0.35       0.00       0.35        0.05     0.60   0.276
  GMRR9CC0025                1.27       0.00       0.00       0.89       0.36       0.00       0.36        0.07     0.77   0.281
  GMRR9CC0026                1.27       0.00       0.00       0.79       0.45       0.00       0.45        0.08     0.98   0.352
  GMRR9CC0027                1.27       0.00       0.00       0.79       0.45       0.00       0.45        0.09     1.05   0.351
  GMRR9CC0028                1.27       0.00       0.00       0.91       0.34       0.00       0.34        0.05     0.58   0.265
  GMRR9CC0029                1.27       0.00       0.00       0.86       0.38       0.00       0.38        0.06     0.65   0.301
  GMRR9CC0030                1.27       0.00       0.00       0.90       0.34       0.00       0.34        0.05     0.58   0.271
  GMRR9CC0032                1.27       0.00       0.00       0.88       0.37       0.00       0.37        0.04     0.49   0.289
  GMRR9CC0033                1.27       0.00       0.00       0.86       0.38       0.00       0.38        0.05     0.53   0.299
  GMRR9CC0034                1.27       0.00       0.00       0.72       0.51       0.00       0.51        0.08     0.91   0.404
  GMRR9CC0035                1.27       0.00       0.00       1.00       0.25       0.00       0.25        0.05     0.60   0.197
  GMRR9CC0036                1.27       0.00       0.00       0.87       0.37       0.00       0.37        0.09     0.99   0.291
  GMRR10CC0031               1.27       0.00       0.00       0.92       0.33       0.00       0.33        0.22     2.57   0.259
  GMRR10CC0001               1.27       0.00       0.00       1.00       0.25       0.00       0.25        0.04     0.49   0.197
  GMRR10CC0002               1.27       0.00       0.00       1.00       0.25       0.00       0.25        0.02     0.27   0.196
  GMRR10CC0003               1.27       0.00       0.00       1.00       0.25       0.00       0.25        0.07     0.78   0.197
  GMRR10CC0004               1.27       0.00       0.00       1.00       0.25       0.00       0.25        0.03     0.31   0.196
  GMRR10CC0005               1.27       0.00       0.00       1.00       0.25       0.00       0.25        0.05     0.57   0.196
  GMRR10CC0006               1.27       0.00       0.00       1.00       0.25       0.00       0.25        0.03     0.40   0.196
  GMRR10CC0007               1.27       0.00       0.00       0.95       0.30       0.00       0.30        0.13     1.51   0.234
  GMRR10CC0008               1.27       0.00       0.00       0.94       0.31       0.00       0.31        0.51     5.92   0.243
[...]
  20707039-20707005          16.77     16.80     17.16      0.22         0.12
  20708018-20708039          18.55     18.55     18.97     29.29         0.01
  20708029-20708008           0.01     23.57      0.01     26.00         0.01
  20708031-20708029          23.57     23.71     23.57     26.03        22.12
  20711047-20711030           0.01      0.01      0.49      0.01         0.01
  11702006-11701002           0.01      0.01      0.01      9.37         0.01
  20716006-20716007           0.01      0.01      1.69      0.01         0.01
  20801023-20801014           0.01      0.01    743.01      0.01         0.01
  19205010-19205011           0.01      1.74      0.01      1.88         0.01
  19204028-19313019          21.55     21.58     21.74     17.11        16.30
  11515001-11511002           9.24     10.80      9.24    729.17         9.19
  11602006-11602007          12.44     12.44     12.58      0.01         0.50
  11602007-11515001          10.80     12.58     10.80    730.85        10.80
  19204031-19204028          21.39     21.40     21.59      0.09         1.33
  CSO522R-19204024           20.57     20.57     21.08      0.01         0.01
  19313003-19313006           0.01      0.01     13.23      0.01         0.01
  19313006-19313023          13.23     13.23     26.27      0.01         0.01
  19313012-19313019           0.01      0.01     21.88      0.01         0.01
  19313019-19313020          21.74     21.74     22.25      0.14         0.01
  19313020-19313021          22.25     22.25     24.06      0.01         0.01
  19313021-19313023          24.83     24.83     26.27      0.01         0.01
  19313023-19313022          26.27     26.27     28.84      0.01         0.01
  19204024-19204031          21.08     21.08     21.40      0.02         0.02
  19302001-19302002           0.01      0.01      3.54      0.01         0.01
  19302002-19302008           3.54      3.54      4.80      0.01         0.01
  19302006-19302002           0.01      0.01      3.54      0.01         0.01
  19302008-19302009           4.82      4.82      4.93      4.52         4.15
  19302009-19307001           4.93      4.93      5.16      0.01         0.14
  CSO518R-19302009            3.69      5.85      4.93      2.31         0.02
  19306001-19306020           0.01      0.01      2.69      0.01         0.01
  19306002-19306007           0.01      0.01      2.96      0.01         0.01
  19306004-19306005           4.36      4.36      4.47      3.63         3.47
  19306005-19306006           4.47      4.47      4.63      3.57         3.48
  19306006-19302008           4.63      4.63      4.82      3.61         3.58
  19313008-19313022           0.01      0.01     28.84      0.01         0.01
  19306009-19306010           2.90      2.95      2.91     21.92         2.87
  19306008-19306009           2.94      3.00      2.95     20.61         2.77
  19306007-19306008           3.00      3.64      3.00     20.76         2.95
  19311006-19306007           3.64      4.22      3.64     20.68         3.61
  19312006-19311006           4.22     24.78      4.22     31.07         4.22
  19312005-19312006          24.78     28.62     24.78     32.14        24.78
  19313022-19312005          28.62     28.84     28.62     32.06        28.62
  19306010-19306011           4.06      4.06      4.08      0.01         0.37
  19306011-19306004           4.11      4.11      4.36      3.51         3.33
  CSO198D1-19306011           3.68      3.68      4.09      0.01         0.01
  19306020-19306010           2.98      2.98      3.18      0.07         0.01
  19307001-19307002           5.15      5.16      5.20      0.01         4.64
  19307002-19307004           5.20      5.20      7.58      0.01         0.31
  19307005-19308021           3.31      3.98      4.74      3.64         2.90
  19311004-19306007           0.01      0.01    139.43      0.01         0.01
  11004009-11113001           7.95      7.95      8.32      0.01         0.01
  11004010-11004009           6.88      6.88      7.95      0.01         0.01
  11004011-11004010           1.92      1.92      6.88      0.01         0.01
  11113001-11113004           8.32      8.32      8.52      0.01         0.30
  11113002-11609017           9.56      9.56     10.61      0.01         0.01
  11113004-11113002           8.52      8.52      9.56      0.01         0.01
  11511002-11506001           8.91      9.24      8.91    730.53         8.91
  19308004-19301006           5.12      5.12      5.34      3.45         2.41
  19308005-19308006           0.01      5.46      0.01      5.99         0.01
  19308006-16005010           0.01      0.01      4.59      0.01         0.01
  19308021-19308004           4.73      4.73      5.12      0.01         2.49
  11412001-15308001          27.38     28.69     27.38    711.67         8.82
  11413021-11412001          28.66     28.77     28.69     40.61         7.31
  11503002-11413021          28.77     39.83     28.77    718.07        15.36
  11608009-11602006          11.86     11.86     12.44      0.01         0.01
  11608010-11608009          11.48     11.48     11.86      0.01         0.01
  11609017-11608010          10.61     10.61     11.48      0.01         0.01
  15106008-15106006           0.01      0.01    731.75      0.01         0.01
  CSO401R-11004015            0.01     19.72      0.01    732.31         0.01
  11004015-11004003R          0.01      0.01     21.61      0.01         0.01
  11004003-11004003F        733.07    733.07    739.55      0.01         0.01
  11004003-11004012           0.01    100.22      0.01    118.56         0.01
  15308001-15308002          26.35     27.38     26.58      7.67         2.56
  15308002-15308031          24.49     26.58     24.49    728.48        17.59
  15308031-15308032          35.30    113.03     35.30    731.30        28.39
  15105008-15105007           0.01      0.01      0.01      3.04         0.01
  16002010-16002023           0.01     29.46      0.01      0.01         0.01
  16002011-16002010           8.95      8.95     11.83      0.01         7.24
  16003001-16002011           7.78      7.78      8.95      0.01         0.01
  16003002-16003001           7.34      7.34      7.78      7.75         7.31
  16003003-16003002           0.01      0.01      7.34      0.01         0.01
  16005006-16005008           5.18      5.18      5.38      0.01         0.01
  16005007-16006007           6.82      6.82      7.47      0.01         0.01
  16005008-16005007           6.25      6.25      6.83      0.01         0.01
  16005009-16005008           5.27      5.27      6.25      0.01         0.01
  16005010-16005009           4.59      4.59      5.27      0.01         0.01
  16006003-16003003           0.01     10.43      0.01      7.64         0.01
  16006004-16006003           8.74      8.74     10.43      0.01         0.01
  16006005-16006004           7.11      7.11      8.74      0.01         0.01
  16006006-16006005           7.11      8.05      7.12      7.49         7.11
  16006007-16011010           7.85      7.85      8.34      7.33         7.31
  16011008-16006006           7.75      7.99      8.05      7.48         7.40
  16011009-16011008           7.79      8.26      7.99      7.44         7.79
  16011010-16011009           8.26      8.34      8.26      9.13         8.24
  16011011-16011010           0.01      0.01      8.85      0.01         0.01
  19301001-19301008           0.01      0.01      5.20      0.01         0.01
  19301006-19301007           5.33      5.34      5.49      5.49         5.18
  19301007-19301008           3.94      5.49      3.94      6.33         3.94
  19301008-19301009           3.17      4.66      3.17      5.53         3.15
  19301009-19308005           5.13      5.13      5.46      4.15         3.67
  19308002-19308003           0.01      0.01      7.13      0.01         0.01
  19308003-19308004           8.32      8.32     22.60      7.94         7.94
  11506001-11503002           8.91      8.91     39.83      0.01         0.01
  11603011-11603009           0.01      0.01      0.01      0.20         0.01
  15201022-15201021           1.61      1.77      1.61      1.93         1.61
  15201023-15201022           1.77      1.87      1.77      1.96         1.77
  15208001-15201023           1.43      1.43      1.87      0.59         0.59
  15308033-15308032           0.01      0.01     24.78      0.01         0.01
  15308032-MUPump            24.78     24.78    734.98      0.01         0.01
  10902002-10902032         742.94    743.16    742.94    741.98       309.56
  20809013-20809012           0.01      0.74      0.01      0.01         0.01
  20711030-20711054           0.49      0.49      1.11      0.01         0.01
  20711054-20711053           1.11      1.11      2.22      0.01         0.01
  20711053-20711027           0.01      0.01      2.22      0.01         0.01
  20708041-20708040           0.01      0.01     18.95      0.01         0.01
  15303001-15307002          16.86     16.86     18.47      0.01         0.01
  15303002-15303001           9.02      9.02     16.86      0.01         0.01
  15305001-15305002           0.08      0.08      7.94      0.01         0.02
  15305002-15305003           7.71      7.71      7.99      0.01         0.01
  15305026-15303002           8.69      8.69      9.02      0.01         0.01
  15305003-15305026           7.99      7.99      8.69      0.01         0.01
  15307002-15307001          18.47     18.47     20.29      0.01         0.01
  15307001-15308025          20.29     20.29     20.97      0.01         0.01
  15306010-15306011           0.01      0.01      0.01      1.84         0.01
  15306013-15307011           0.01      0.01      0.01      1.78         0.01
  11801001-10904001           1.63      1.63    742.12      0.01         0.01
  11801002-11801001           0.01      0.01      0.54      0.01         0.01
  10904001-10904002         742.12    742.12    743.01      0.01         0.01
  10904002-10904003         742.88    743.01    742.88    743.08       742.88
  10904003-10904004           0.01    742.88      0.01    742.95         0.01
  19202019-19202026           6.59      7.73      6.59      8.32         6.59
  19202026-19202013           0.01      6.59      0.01      7.99         0.01
  19207004-19202019           7.73      7.91      7.73      8.17         7.73
  19207008-19207009           6.58      6.58      6.85      0.01         0.01
  19207009-19207020           6.85      6.85      7.77      0.01         0.01
  19207010-19207004           7.73      7.73      7.91      7.70         7.68
  19207016-19207010           7.26      7.26      7.73      0.01         0.01
  19207019-19207016           7.26      7.29      7.26      7.66         7.26
  19207020-19207019           7.29      7.77      7.29     25.85         7.29
  19207021-19207020           6.66      6.66      7.77      0.01         0.01
  19208010-19207008           5.35      5.35      6.58      0.01         0.01
  19208011-19208010           5.30      5.50      5.30     10.01         5.30
  19209001-19208011           4.26      4.26      5.50      0.01         0.01
  19209002-19209001           3.72      3.72      4.28      0.01         0.01
  19209003-19209002           3.38      3.38      3.72      0.01         0.01
  19207022-19207021           5.84      5.84      6.66      0.01         0.01
  19210003-19207022           4.60      4.60      5.36      0.01         0.01
  19210004-19210003           4.95      7.14      4.95      7.73         4.95
  19210013-19210004           7.14      7.51      7.14      7.85         7.14
  19210017-19210018           0.01      0.01      5.37      0.01         0.01
  19210018-19210013           7.51      7.61      7.51      7.75         7.51
  19210019-19210018           7.19      7.19      7.49      4.59         4.65
  19210020-19210019           6.96      6.96      7.19      0.39         0.47
  19210022-19210018           0.01      0.01      5.02      0.01         0.01
  19215006-19215007           0.01      0.01      5.45      0.01         0.01
  19215007-19210020           6.61      6.61      6.96      2.16         1.97
  19215008-19215007           0.01      0.01      6.43      0.01         0.01
  19215022-19215031           0.01      0.01      3.32      0.01         0.01
  19215024-19215007           5.40      5.40      6.61      0.01         0.01
  19215025-19215024           0.01      0.01      4.87      0.01         0.01
  19215026-19215024           4.76      4.76      5.40      0.01         0.01
  19215027-19215026           4.76      5.55      4.76      6.12         4.76
  19215028-19215027           3.91      3.91      4.33      0.01         0.01
  19215030-19215027           3.90      3.90      5.55      0.01         0.01
  19215031-19215030           3.32      3.32      3.90      0.01         0.01
  19215033-19215031           0.01      0.01      3.32      0.01         0.01
  20614047-20703006           0.01      0.01    626.41      0.01         0.01
  19304001-19305018           0.01      0.01      6.49      0.01         0.01
  20606034-20606032           0.01      0.01    733.83      0.01         0.01
  20606031-20606032           0.01      0.01    739.33      0.01         0.01
  23801017-23801018           0.01      0.01      0.84      0.01         0.01
  23801026-23801027           0.01      0.01      1.41      0.01         0.01
  23809050-23809002           0.01      0.01      0.01      1.55         0.01
  20814036-20814003           0.01      0.01    743.00      0.01         0.01
  20902001-20815003           0.01      2.82      0.01      3.39         0.01
  20905006-20905007          11.90     11.90     14.23      0.01         0.01
  20905009-20905006           0.01      0.01      5.41      0.01         0.01
  19003002-19003014           0.01    742.87      0.01    743.95         0.01
  19813006-19813004           0.01      0.01     24.35      0.01         0.01
  19813002-19813003          11.80     11.80     43.03      0.01         0.01
  19813004-19813003          24.35     24.35     37.74      0.01         0.01
  19813003-19813005          43.03     43.03     65.91      0.01         0.01
  20314005-20311008           0.01      0.01    737.47      0.01         0.01
  20404009-20404010         706.74    706.74    711.24      0.01         0.01
  20404020-20404015           0.01      4.49      0.01      4.62         0.01
  20404021-20404024           4.11      4.19      4.18      3.97         3.83
  20404024-20404020           4.09      4.18      4.09      4.48         4.09
  20404030-20404024           1.92      1.92      4.18      0.01         0.01
  24101001-20404021           4.06      4.06      4.19      3.89         3.83
  24101002-24101001           3.91      3.91      4.06      3.88         3.81
  24101003-24101002           3.72      3.72      3.91      0.01         0.01
  24101031-24101003           3.61      3.61      3.72      0.01         0.01
  24001006-24116031           0.01      0.01      1.88      0.01         0.01
  24116031-24116026           0.01      1.96      0.01      1.99         0.01
  20413029-20413030           0.01      0.01      1.57      0.01         0.01
  20413030-20413031           0.99      1.57      0.99      4.84         0.99
  24116026-24116025           0.01      0.01      1.77      0.01         0.01
  15711004-15706001           0.01      3.59      0.01      2.13         0.01
  15712015-15711004           0.01      0.01      3.59      0.01         0.01
  19501006-19501021           0.01      0.01      1.89      0.01         0.01
  19501020-19501021           2.52      2.52      3.40      0.01         0.01
  19501021-19501022           0.01      3.40      0.01      1.55         0.01
  19502011-19501020           2.28      2.28      2.52      0.01         0.01
  19502016-19502011           2.25      2.49      2.28      1.40         2.24
  19712012-19712006           0.01      0.01      3.97      0.01         0.01
  20209010-20209009           0.01      0.01      0.01      3.58         0.01
  19510001-19510003           0.01      0.01    725.23      0.01         0.01
  19502017-19502016           2.17      2.17      2.50      0.01         0.01
  19502018-19502017           2.05      2.05      2.17      0.22         0.02
  19502019-19502018           1.94      1.94      2.05      0.29         0.02
  19502020-19502019           1.84      1.84      1.94      0.37         0.01
  19503016-19502020           1.71      1.71      1.84      0.33         0.01
  19503017-19503016           1.49      1.72      1.71      0.41         0.01
  19503018-19503017           1.72      5.95      1.72      2.53         1.72
  19510003-19510004         725.23    725.23    733.26      0.01         0.01
  19510004-19510005         733.26    733.26    740.07      0.01         0.01
  19510005-19510006         740.07    740.07    742.14      0.01         0.01
  19515005-19510005           0.01      0.01    740.07      0.01         0.01
  20402017-20402021           0.01      0.01      3.04      0.01         0.01
  CSO523R-19503018            3.79      3.79      6.07      0.01         2.29
  CSO404R-11503002           28.03     28.03    740.06      9.41         0.01
  CSO405R-11413021           21.74     21.74    739.84      5.42         0.01
  CSO406R-15308001            9.99      9.99    739.46      0.01         0.01
  CSO403R-11511002            1.89      1.89    740.36      0.01         0.01
  CSO402R-11608010            6.62      6.62    741.27      0.01         0.01
  ORIFICE16@15305002-15305002a        2.16      7.64      2.20      2.75         1.81
  11004003R-11004003         17.34     21.61     17.34     39.73        17.31
  CSO198R-19306011            0.01      0.01      3.35      0.01         0.01
  
  
  ***************
  Pumping Summary
  ***************
  
  ---------------------------------------------------------------------------------------------------------
                                                  Min       Avg       Max     Total     Power    % Time Off
                        Percent   Number of      Flow      Flow      Flow    Volume     Usage    Pump Curve
  Pump                 Utilized   Start-Ups       CFS       CFS       CFS  10^6 gal     Kw-hr    Low   High
  ---------------------------------------------------------------------------------------------------------
  PUMP1@15615001-15702001   100.00           2      0.00      2.33      4.25    45.616   6819.79    0.0    0.4
  PUMP2@19815008-19815001   100.00           1      0.00      1.78      3.50    35.141   2906.43    0.0    0.6
  PUMP3@20101027-20101002   100.00           1      0.00      1.63      3.00    32.145    877.48    0.0    0.6
  PUMP4@24403004-24403003    99.88           1      0.00      1.11      1.30    21.912   1289.40    0.0    0.6
  PUMP5@10902032-10902028    47.46       25555      0.00      0.22      0.22     2.092    168.57    0.0    0.0
  PUMP6@MUPump-MUGrit     99.87           3      0.00     28.70     34.00   569.526  67383.10    0.7    5.7
  PUMP7@11004012W-11004011    99.85           1      0.00     14.02     14.12   280.283  29690.33    0.7   98.4
  PUMP8@19206021-19206005    99.98           1      0.00      0.03      0.03     0.603     29.07  100.0    0.0
  PUMP10@20906020-20906002     0.00           0      0.00      0.00      0.00     0.000      0.00    0.0    0.0
  PUMP11@20905007-20904015   100.00           1      0.00      0.07      0.11     1.416    242.64   98.2    1.8
  PUMP12@19003014-19111014   100.00           1      0.00      0.11      0.40     2.173    495.77  100.0    0.0
  PUMP13@19813005-20115006   100.00           1      0.00      0.19      0.22     3.741    864.33    0.1   12.9
  PUMP14@19510006-19514004    99.99           1      0.00      0.09      0.09     1.776    247.31    0.0    0.2
  

  Analysis begun on:  Wed Jun 24 15:01:10 2026
  Analysis ended on:  Wed Jun 24 15:07:25 2026
  Total elapsed time: 00:06:15