
  EPA STORM WATER MANAGEMENT MODEL - VERSION 5.2 (Build 5.2.4)
  ------------------------------------------------------------

  WARNING 04: minimum elevation drop used for Conduit 1044
  WARNING 04: minimum elevation drop used for Conduit 1045
  WARNING 04: minimum elevation drop used for Conduit 111
  WARNING 03: negative offset ignored for Link 1117
  WARNING 03: negative offset ignored for Link 1121
  WARNING 04: minimum elevation drop used for Conduit 1121
  WARNING 04: minimum elevation drop used for Conduit 121
  WARNING 04: minimum elevation drop used for Conduit 157
  WARNING 03: negative offset ignored for Link 160
  WARNING 03: negative offset ignored for Link 1630
  WARNING 03: negative offset ignored for Link 165
  WARNING 04: minimum elevation drop used for Conduit 1658
  WARNING 04: minimum elevation drop used for Conduit 2057
  WARNING 03: negative offset ignored for Link 217
  WARNING 03: negative offset ignored for Link 2237
  WARNING 03: negative offset ignored for Link 2348
  WARNING 03: negative offset ignored for Link 2349
  WARNING 04: minimum elevation drop used for Conduit 2381
  WARNING 04: minimum elevation drop used for Conduit 2382
  WARNING 08: elevation drop exceeds length for Conduit 2388
  WARNING 03: negative offset ignored for Link 2401
  WARNING 04: minimum elevation drop used for Conduit 2401
  WARNING 03: negative offset ignored for Link 2402
  WARNING 04: minimum elevation drop used for Conduit 2428
  WARNING 04: minimum elevation drop used for Conduit 2492
  WARNING 03: negative offset ignored for Link 2558
  WARNING 03: negative offset ignored for Link 259
  WARNING 03: negative offset ignored for Link 2642
  WARNING 03: negative offset ignored for Link 2653
  WARNING 04: minimum elevation drop used for Conduit 2712
  WARNING 04: minimum elevation drop used for Conduit 2715
  WARNING 04: minimum elevation drop used for Conduit 2716
  WARNING 04: minimum elevation drop used for Conduit 2735
  WARNING 04: minimum elevation drop used for Conduit 2756
  WARNING 03: negative offset ignored for Link 29
  WARNING 03: negative offset ignored for Link 298
  WARNING 03: negative offset ignored for Link 301
  WARNING 03: negative offset ignored for Link 3055
  WARNING 04: minimum elevation drop used for Conduit 3086
  WARNING 04: minimum elevation drop used for Conduit 31
  WARNING 03: negative offset ignored for Link 3113
  WARNING 03: negative offset ignored for Link 3113
  WARNING 03: negative offset ignored for Link 3114
  WARNING 03: negative offset ignored for Link 3160
  WARNING 04: minimum elevation drop used for Conduit 3213
  WARNING 04: minimum elevation drop used for Conduit 3214
  WARNING 04: minimum elevation drop used for Conduit 3277
  WARNING 04: minimum elevation drop used for Conduit 3406
  WARNING 03: negative offset ignored for Link 3459
  WARNING 04: minimum elevation drop used for Conduit 3459
  WARNING 04: minimum elevation drop used for Conduit 3527
  WARNING 04: minimum elevation drop used for Conduit 3571
  WARNING 04: minimum elevation drop used for Conduit 3688
  WARNING 04: minimum elevation drop used for Conduit 3831
  WARNING 04: minimum elevation drop used for Conduit 3872
  WARNING 04: minimum elevation drop used for Conduit 3914
  WARNING 04: minimum elevation drop used for Conduit 3915
  WARNING 04: minimum elevation drop used for Conduit 3962
  WARNING 03: negative offset ignored for Link 406
  WARNING 03: negative offset ignored for Link 4226
  WARNING 03: negative offset ignored for Link 4228
  WARNING 03: negative offset ignored for Link 4246
  WARNING 03: negative offset ignored for Link 4252
  WARNING 04: minimum elevation drop used for Conduit 4252
  WARNING 03: negative offset ignored for Link 4253
  WARNING 04: minimum elevation drop used for Conduit 4282
  WARNING 03: negative offset ignored for Link 429
  WARNING 04: minimum elevation drop used for Conduit 4299
  WARNING 03: negative offset ignored for Link 430
  WARNING 03: negative offset ignored for Link 4313
  WARNING 03: negative offset ignored for Link 4351
  WARNING 03: negative offset ignored for Link 4362
  WARNING 03: negative offset ignored for Link 4416
  WARNING 03: negative offset ignored for Link 4421
  WARNING 03: negative offset ignored for Link 4422
  WARNING 03: negative offset ignored for Link 4438
  WARNING 04: minimum elevation drop used for Conduit 4496
  WARNING 03: negative offset ignored for Link 4581
  WARNING 03: negative offset ignored for Link 4582
  WARNING 03: negative offset ignored for Link 4588
  WARNING 03: negative offset ignored for Link 4592
  WARNING 03: negative offset ignored for Link 4658
  WARNING 03: negative offset ignored for Link 4675
  WARNING 03: negative offset ignored for Link 4676
  WARNING 03: negative offset ignored for Link 4676
  WARNING 03: negative offset ignored for Link 4679
  WARNING 03: negative offset ignored for Link 4680
  WARNING 03: negative offset ignored for Link 4686
  WARNING 04: minimum elevation drop used for Conduit 4695
  WARNING 04: minimum elevation drop used for Conduit 474
  WARNING 04: minimum elevation drop used for Conduit 4800
  WARNING 04: minimum elevation drop used for Conduit 4815
  WARNING 04: minimum elevation drop used for Conduit 5073
  WARNING 04: minimum elevation drop used for Conduit 5197
  WARNING 04: minimum elevation drop used for Conduit 5233
  WARNING 04: minimum elevation drop used for Conduit 5268
  WARNING 04: minimum elevation drop used for Conduit 5272
  WARNING 04: minimum elevation drop used for Conduit 5274
  WARNING 04: minimum elevation drop used for Conduit 5275
  WARNING 04: minimum elevation drop used for Conduit 5409
  WARNING 04: minimum elevation drop used for Conduit 5417
  WARNING 04: minimum elevation drop used for Conduit 5460
  WARNING 04: minimum elevation drop used for Conduit 5466
  WARNING 03: negative offset ignored for Link 5533
  WARNING 03: negative offset ignored for Link 5536
  WARNING 03: negative offset ignored for Link 5568
  WARNING 03: negative offset ignored for Link 5586
  WARNING 04: minimum elevation drop used for Conduit 5588
  WARNING 04: minimum elevation drop used for Conduit 5589
  WARNING 04: minimum elevation drop used for Conduit 5617
  WARNING 04: minimum elevation drop used for Conduit 5623
  WARNING 04: minimum elevation drop used for Conduit 5631
  WARNING 03: negative offset ignored for Link 5640
  WARNING 04: minimum elevation drop used for Conduit 5689
  WARNING 04: minimum elevation drop used for Conduit 5754
  WARNING 03: negative offset ignored for Link 5756
  WARNING 03: negative offset ignored for Link 5773
  WARNING 04: minimum elevation drop used for Conduit 5777
  WARNING 04: minimum elevation drop used for Conduit 5778
  WARNING 03: negative offset ignored for Link 5784
  WARNING 03: negative offset ignored for Link 5793
  WARNING 03: negative offset ignored for Link 5835
  WARNING 03: negative offset ignored for Link 5878
  WARNING 04: minimum elevation drop used for Conduit 5915
  WARNING 04: minimum elevation drop used for Conduit 5930
  WARNING 04: minimum elevation drop used for Conduit 5942
  WARNING 03: negative offset ignored for Link 5945
  WARNING 04: minimum elevation drop used for Conduit 595
  WARNING 04: minimum elevation drop used for Conduit 5956
  WARNING 04: minimum elevation drop used for Conduit 6030
  WARNING 04: minimum elevation drop used for Conduit 6104
  WARNING 04: minimum elevation drop used for Conduit 6155
  WARNING 03: negative offset ignored for Link 6184
  WARNING 03: negative offset ignored for Link 6185
  WARNING 03: negative offset ignored for Link 6185
  WARNING 04: minimum elevation drop used for Conduit 6194
  WARNING 03: negative offset ignored for Link 6208
  WARNING 04: minimum elevation drop used for Conduit 6220
  WARNING 03: negative offset ignored for Link 6246
  WARNING 04: minimum elevation drop used for Conduit 6250
  WARNING 03: negative offset ignored for Link 6282
  WARNING 04: minimum elevation drop used for Conduit 6282
  WARNING 03: negative offset ignored for Link 6298
  WARNING 03: negative offset ignored for Link 6355
  WARNING 03: negative offset ignored for Link 6375
  WARNING 03: negative offset ignored for Link 6404
  WARNING 03: negative offset ignored for Link 6405
  WARNING 04: minimum elevation drop used for Conduit 6441
  WARNING 04: minimum elevation drop used for Conduit 6447
  WARNING 04: minimum elevation drop used for Conduit 6455
  WARNING 04: minimum elevation drop used for Conduit 6458
  WARNING 04: minimum elevation drop used for Conduit 6480
  WARNING 04: minimum elevation drop used for Conduit 6481
  WARNING 04: minimum elevation drop used for Conduit 6486
  WARNING 04: minimum elevation drop used for Conduit 6502
  WARNING 04: minimum elevation drop used for Conduit 6539
  WARNING 03: negative offset ignored for Link 6617
  WARNING 04: minimum elevation drop used for Conduit 6626
  WARNING 04: minimum elevation drop used for Conduit 6650
  WARNING 04: minimum elevation drop used for Conduit 6692
  WARNING 04: minimum elevation drop used for Conduit 6709
  WARNING 04: minimum elevation drop used for Conduit 6745
  WARNING 04: minimum elevation drop used for Conduit 676
  WARNING 04: minimum elevation drop used for Conduit 6821
  WARNING 03: negative offset ignored for Link 683
  WARNING 03: negative offset ignored for Link 6861
  WARNING 03: negative offset ignored for Link 6886
  WARNING 03: negative offset ignored for Link 6887
  WARNING 03: negative offset ignored for Link 691
  WARNING 03: negative offset ignored for Link 692
  WARNING 03: negative offset ignored for Link 6929
  WARNING 03: negative offset ignored for Link 6943
  WARNING 03: negative offset ignored for Link 696
  WARNING 03: negative offset ignored for Link 6969
  WARNING 03: negative offset ignored for Link 7016
  WARNING 08: elevation drop exceeds length for Conduit 7065
  WARNING 04: minimum elevation drop used for Conduit 7082
  WARNING 03: negative offset ignored for Link 7171
  WARNING 04: minimum elevation drop used for Conduit 719
  WARNING 04: minimum elevation drop used for Conduit 7247
  WARNING 04: minimum elevation drop used for Conduit 7248
  WARNING 04: minimum elevation drop used for Conduit 7317
  WARNING 04: minimum elevation drop used for Conduit 7324
  WARNING 03: negative offset ignored for Link 7331
  WARNING 03: negative offset ignored for Link 7332
  WARNING 04: minimum elevation drop used for Conduit 7341
  WARNING 08: elevation drop exceeds length for Conduit 7342
  WARNING 03: negative offset ignored for Link 7351
  WARNING 04: minimum elevation drop used for Conduit 7386
  WARNING 08: elevation drop exceeds length for Conduit 7393
  WARNING 08: elevation drop exceeds length for Conduit 7394
  WARNING 04: minimum elevation drop used for Conduit 7416
  WARNING 04: minimum elevation drop used for Conduit 7428
  WARNING 04: minimum elevation drop used for Conduit 7429
  WARNING 04: minimum elevation drop used for Conduit 7447
  WARNING 04: minimum elevation drop used for Conduit 7463
  WARNING 04: minimum elevation drop used for Conduit 7464
  WARNING 04: minimum elevation drop used for Conduit 7473
  WARNING 04: minimum elevation drop used for Conduit 7516
  WARNING 04: minimum elevation drop used for Conduit 7535
  WARNING 04: minimum elevation drop used for Conduit 7568
  WARNING 04: minimum elevation drop used for Conduit 7572
  WARNING 04: minimum elevation drop used for Conduit 7573
  WARNING 03: negative offset ignored for Link 7574
  WARNING 04: minimum elevation drop used for Conduit 7574
  WARNING 04: minimum elevation drop used for Conduit 7586
  WARNING 04: minimum elevation drop used for Conduit 7590
  WARNING 04: minimum elevation drop used for Conduit 7598
  WARNING 04: minimum elevation drop used for Conduit 7601
  WARNING 04: minimum elevation drop used for Conduit 7602
  WARNING 04: minimum elevation drop used for Conduit 7603
  WARNING 04: minimum elevation drop used for Conduit 7605
  WARNING 04: minimum elevation drop used for Conduit 7616
  WARNING 04: minimum elevation drop used for Conduit 7620
  WARNING 04: minimum elevation drop used for Conduit 7630
  WARNING 04: minimum elevation drop used for Conduit 7632
  WARNING 04: minimum elevation drop used for Conduit 7634
  WARNING 04: minimum elevation drop used for Conduit 7648
  WARNING 04: minimum elevation drop used for Conduit 7658
  WARNING 04: minimum elevation drop used for Conduit 7681
  WARNING 04: minimum elevation drop used for Conduit 7701
  WARNING 04: minimum elevation drop used for Conduit 7722
  WARNING 03: negative offset ignored for Link 7732
  WARNING 04: minimum elevation drop used for Conduit 7733
  WARNING 04: minimum elevation drop used for Conduit 7734
  WARNING 04: minimum elevation drop used for Conduit 7735
  WARNING 04: minimum elevation drop used for Conduit 7736
  WARNING 04: minimum elevation drop used for Conduit 775
  WARNING 04: minimum elevation drop used for Conduit 7758
  WARNING 08: elevation drop exceeds length for Conduit 776
  WARNING 03: negative offset ignored for Link 7773
  WARNING 04: minimum elevation drop used for Conduit 7783
  WARNING 04: minimum elevation drop used for Conduit 7791
  WARNING 04: minimum elevation drop used for Conduit 7811
  WARNING 04: minimum elevation drop used for Conduit 7812
  WARNING 04: minimum elevation drop used for Conduit 7820
  WARNING 04: minimum elevation drop used for Conduit 7827
  WARNING 03: negative offset ignored for Link 7828
  WARNING 03: negative offset ignored for Link 7828
  WARNING 04: minimum elevation drop used for Conduit 7836
  WARNING 04: minimum elevation drop used for Conduit 7851
  WARNING 04: minimum elevation drop used for Conduit 7864
  WARNING 04: minimum elevation drop used for Conduit 7865
  WARNING 04: minimum elevation drop used for Conduit 7894
  WARNING 04: minimum elevation drop used for Conduit 7954
  WARNING 03: negative offset ignored for Link 7962
  WARNING 04: minimum elevation drop used for Conduit 7964
  WARNING 04: minimum elevation drop used for Conduit 7965
  WARNING 04: minimum elevation drop used for Conduit 7966
  WARNING 03: negative offset ignored for Link 7969
  WARNING 04: minimum elevation drop used for Conduit 7977
  WARNING 04: minimum elevation drop used for Conduit 7984
  WARNING 08: elevation drop exceeds length for Conduit 8
  WARNING 04: minimum elevation drop used for Conduit 8009
  WARNING 04: minimum elevation drop used for Conduit 8015
  WARNING 03: negative offset ignored for Link 8021
  WARNING 03: negative offset ignored for Link 8035
  WARNING 03: negative offset ignored for Link 8037
  WARNING 03: negative offset ignored for Link 8040
  WARNING 04: minimum elevation drop used for Conduit 8054
  WARNING 04: minimum elevation drop used for Conduit 8063
  WARNING 04: minimum elevation drop used for Conduit 8064
  WARNING 03: negative offset ignored for Link 8074
  WARNING 03: negative offset ignored for Link 8092
  WARNING 03: negative offset ignored for Link 8092
  WARNING 04: minimum elevation drop used for Conduit CDT-111
  WARNING 04: minimum elevation drop used for Conduit CDT-113
  WARNING 03: negative offset ignored for Link CDT-117
  WARNING 04: minimum elevation drop used for Conduit CDT-119
  WARNING 08: elevation drop exceeds length for Conduit CDT-127
  WARNING 04: minimum elevation drop used for Conduit CDT-153
  WARNING 03: negative offset ignored for Link CDT-195
  WARNING 03: negative offset ignored for Link CDT-207
  WARNING 04: minimum elevation drop used for Conduit CDT-225
  WARNING 03: negative offset ignored for Link CDT-233
  WARNING 03: negative offset ignored for Link CDT-233
  WARNING 04: minimum elevation drop used for Conduit CDT-281
  WARNING 03: negative offset ignored for Link CDT-283
  WARNING 03: negative offset ignored for Link CDT-283
  WARNING 04: minimum elevation drop used for Conduit CDT-285
  WARNING 03: negative offset ignored for Link CDT-287
  WARNING 03: negative offset ignored for Link CDT-289
  WARNING 04: minimum elevation drop used for Conduit CDT-289
  WARNING 03: negative offset ignored for Link CDT-327
  WARNING 03: negative offset ignored for Link CDT-327
  WARNING 03: negative offset ignored for Link CDT-371
  WARNING 03: negative offset ignored for Link CDT-371
  WARNING 03: negative offset ignored for Link CDT-43
  WARNING 03: negative offset ignored for Link CDT-43
  WARNING 04: minimum elevation drop used for Conduit CDT-73
  WARNING 04: minimum elevation drop used for Conduit CDT-83
  WARNING 02: maximum depth increased for Node 105
  WARNING 02: maximum depth increased for Node 113
  WARNING 02: maximum depth increased for Node 114
  WARNING 02: maximum depth increased for Node 122
  WARNING 02: maximum depth increased for Node 13
  WARNING 02: maximum depth increased for Node 150
  WARNING 02: maximum depth increased for Node 162
  WARNING 02: maximum depth increased for Node 1757
  WARNING 02: maximum depth increased for Node 182
  WARNING 02: maximum depth increased for Node 183
  WARNING 02: maximum depth increased for Node 3082
  WARNING 02: maximum depth increased for Node 31
  WARNING 02: maximum depth increased for Node 3485
  WARNING 02: maximum depth increased for Node 3552
  WARNING 02: maximum depth increased for Node 3625
  WARNING 02: maximum depth increased for Node 37
  WARNING 02: maximum depth increased for Node 3805
  WARNING 02: maximum depth increased for Node 3914
  WARNING 02: maximum depth increased for Node 4683
  WARNING 02: maximum depth increased for Node 4867
  WARNING 02: maximum depth increased for Node 5530
  WARNING 02: maximum depth increased for Node 5694
  WARNING 02: maximum depth increased for Node 57
  WARNING 02: maximum depth increased for Node 5791
  WARNING 02: maximum depth increased for Node 5837
  WARNING 02: maximum depth increased for Node 62
  WARNING 02: maximum depth increased for Node 628
  WARNING 02: maximum depth increased for Node 7083
  WARNING 02: maximum depth increased for Node 71
  WARNING 02: maximum depth increased for Node 7165
  WARNING 02: maximum depth increased for Node 7548
  WARNING 02: maximum depth increased for Node 7643
  WARNING 02: maximum depth increased for Node 7661
  WARNING 02: maximum depth increased for Node 78
  WARNING 02: maximum depth increased for Node 99
  WARNING 02: maximum depth increased for Node JCT-1280
  WARNING 02: maximum depth increased for Node JCT-1520
  WARNING 02: maximum depth increased for Node JCT-1890
  WARNING 02: maximum depth increased for Node JCT-2432
  WARNING 02: maximum depth increased for Node JCT-2436
  WARNING 02: maximum depth increased for Node JCT-2568
  WARNING 02: maximum depth increased for Node JCT-2598
  WARNING 02: maximum depth increased for Node JCT-2636
  WARNING 02: maximum depth increased for Node JCT-2703
  WARNING 02: maximum depth increased for Node JCT-2705
  WARNING 02: maximum depth increased for Node JCT-2743
  
  ****************
  Analysis Options
  ****************
  Flow Units ............... GPM
  Process Models:
    Rainfall/Runoff ........ YES
    RDII ................... YES
    Snowmelt ............... NO
    Groundwater ............ NO
    Flow Routing ........... YES
    Ponding Allowed ........ NO
    Water Quality .......... YES
  Infiltration Method ...... HORTON
  Flow Routing Method ...... DYNWAVE
  Surcharge Method ......... EXTRAN
  Starting Date ............ 04/21/2012 00:00:00
  Ending Date .............. 04/26/2012 00:00:00
  Antecedent Dry Days ...... 5.0
  Report Time Step ......... 00:15:00
  Wet Time Step ............ 00:01:00
  Dry Time Step ............ 00:01:00
  Routing Time Step ........ 30.00 sec
  Variable Time Step ....... YES
  Maximum Trials ........... 8
  Number of Threads ........ 1
  Head Tolerance ........... 0.005000 ft
  
  
  **********************           Volume        Volume
  Rainfall Dependent I/I        acre-feet      10^6 gal
  **********************        ---------     ---------
  Sewershed Rainfall ......      2775.089       904.304
  RDII Produced ...........         8.033         2.618
  RDII Ratio ..............         0.003
  
  
  **************************        Volume         Depth
  Runoff Quantity Continuity     acre-feet        inches
  **************************     ---------       -------
  Total Precipitation ......      2893.290         4.200
  Evaporation Loss .........         0.000         0.000
  Infiltration Loss ........      2772.053         4.024
  Surface Runoff ...........       116.962         0.170
  Final Storage ............         4.277         0.006
  Continuity Error (%) .....        -0.000
  
  
  **************************          RDII           DWF        RUNOFF
  Runoff Quality Continuity            lbs           lbs           lbs
  **************************    ----------    ----------    ----------
  Initial Buildup ..........         0.000         0.000         0.000
  Surface Buildup ..........         0.000         0.000         0.000
  Wet Deposition ...........         0.000         0.000    786244.213
  Sweeping Removal .........         0.000         0.000         0.000
  Infiltration Loss ........         0.000         0.000    753298.526
  BMP Removal ..............         0.000         0.000         0.000
  Surface Runoff ...........         0.000         0.000     31108.406
  Remaining Buildup ........         0.000         0.000      1162.214
  Continuity Error (%) .....         0.000         0.000         0.086
  
  
  **************************        Volume        Volume
  Flow Routing Continuity        acre-feet      10^6 gal
  **************************     ---------     ---------
  Dry Weather Inflow .......        20.568         6.703
  Wet Weather Inflow .......       116.948        38.109
  Groundwater Inflow .......         0.000         0.000
  RDII Inflow ..............         8.033         2.618
  External Inflow ..........       161.845        52.740
  External Outflow .........       298.817        97.374
  Flooding Loss ............         0.101         0.033
  Evaporation Loss .........         0.000         0.000
  Exfiltration Loss ........         0.000         0.000
  Initial Stored Volume ....         0.000         0.000
  Final Stored Volume ......         3.201         1.043
  Continuity Error (%) .....         1.716
  
  
  **************************          RDII           DWF        RUNOFF
  Quality Routing Continuity           lbs           lbs           lbs
  **************************    ----------    ----------    ----------
  Dry Weather Inflow .......         0.000      5589.396         0.000
  Wet Weather Inflow .......         0.000         0.000     31104.484
  Groundwater Inflow .......         0.000         0.000         0.000
  RDII Inflow ..............      2182.897         0.000         0.000
  External Inflow ..........         0.000         0.000         0.000
  External Outflow .........      2277.234      5491.117     30550.980
  Flooding Loss ............         0.276         8.911         6.465
  Exfiltration Loss ........         0.000         0.000         0.000
  Mass Reacted .............         0.000         0.000         0.000
  Initial Stored Mass ......         0.000         0.000         0.000
  Final Stored Mass ........         0.181        75.132         0.508
  Continuity Error (%) .....        -4.343         0.255         1.757
  
  
  *************************
  Highest Continuity Errors
  *************************
  Node 4413 (55.44%)
  Node 908 (30.12%)
  Node JCT-2660 (22.57%)
  Node 3115 (20.60%)
  Node 3038 (13.96%)
  
  
  ***************************
  Time-Step Critical Elements
  ***************************
  Link 3488 (26.82%)
  Link 5932 (1.20%)
  Link CDT-303 (1.19%)
  Link 5933 (1.11%)
  Link 3457 (1.01%)
  
  
  ********************************
  Highest Flow Instability Indexes
  ********************************
  Link 6894 (101)
  Link 6897 (72)
  Link 6888 (58)
  Link 3629 (22)
  Link 3630 (21)
  
  
  *********************************
  Most Frequent Nonconverging Nodes
  *********************************
  Node 42 (6.08%)
  Node 5844 (6.08%)
  Node IN_42 (6.08%)
  Node IN_43 (6.08%)
  Node JCT-1506 (6.08%)
  
  
  *************************
  Routing Time Step Summary
  *************************
  Minimum Time Step           :     0.60 sec
  Average Time Step           :    25.31 sec
  Maximum Time Step           :    30.00 sec
  % of Time in Steady State   :     0.00
  Average Iterations per Step :     3.45
  % of Steps Not Converging   :     6.08
  Time Step Frequencies       :
     30.000 - 13.228 sec      :    94.00 %
     13.228 -  5.833 sec      :     4.12 %
      5.833 -  2.572 sec      :     1.49 %
      2.572 -  1.134 sec      :     0.39 %
      1.134 -  0.500 sec      :     0.01 %
  
  
  ***************************
  Subcatchment Runoff Summary
  ***************************
  
  ------------------------------------------------------------------------------------------------------------------------------
                            Total      Total      Total      Total     Imperv       Perv      Total       Total     Peak  Runoff
                           Precip      Runon       Evap      Infil     Runoff     Runoff     Runoff      Runoff   Runoff   Coeff
  Subcatchment                 in         in         in         in         in         in         in    10^6 gal      GPM
  ------------------------------------------------------------------------------------------------------------------------------
  SUB-10                     4.20       0.00       0.00       4.00       0.19       0.00       0.19        0.03    54.49   0.046
  SUB-100                    4.20       0.00       0.00       3.89       0.30       0.00       0.30        0.20   427.75   0.072
  SUB-102                    4.20       0.00       0.00       4.16       0.04       0.00       0.04        0.01    25.86   0.010
  SUB-104                    4.20       0.00       0.00       3.99       0.20       0.00       0.20        0.35   724.42   0.048
  SUB-106                    4.20       0.00       0.00       3.99       0.21       0.00       0.21        0.33   687.74   0.049
  SUB-108                    4.20       0.00       0.00       4.02       0.18       0.00       0.18        0.11   226.71   0.042
  SUB-110                    4.20       0.00       0.00       4.09       0.11       0.00       0.11        0.09   182.85   0.026
  SUB-112                    4.20       0.00       0.00       4.07       0.13       0.00       0.13        0.10   205.46   0.030
  SUB-114                    4.20       0.00       0.00       4.09       0.10       0.00       0.10        0.04    82.65   0.025
  SUB-116                    4.20       0.00       0.00       4.00       0.19       0.00       0.19        0.07   155.62   0.046
  SUB-12                     4.20       0.00       0.00       4.10       0.10       0.00       0.10        0.02    42.34   0.023
  SUB-120                    4.20       0.00       0.00       4.10       0.10       0.00       0.10        0.03    63.68   0.023
  SUB-122                    4.20       0.00       0.00       4.07       0.12       0.00       0.12        0.05    95.01   0.029
  SUB-124                    4.20       0.00       0.00       4.06       0.13       0.00       0.13        0.05   108.89   0.032
  SUB-126                    4.20       0.00       0.00       4.02       0.17       0.00       0.17        0.06   125.08   0.041
  SUB-128                    4.20       0.00       0.00       4.00       0.19       0.00       0.19        0.12   250.84   0.046
  SUB-130                    4.20       0.00       0.00       4.06       0.14       0.00       0.14        0.10   210.65   0.033
  SUB-132                    4.20       0.00       0.00       4.06       0.13       0.00       0.13        0.10   205.02   0.032
  SUB-134                    4.20       0.00       0.00       4.08       0.12       0.00       0.12        0.06   126.93   0.027
  SUB-136                    4.20       0.00       0.00       4.04       0.15       0.00       0.15        0.10   214.03   0.036
  SUB-138                    4.20       0.00       0.00       4.09       0.11       0.00       0.11        0.04    84.10   0.026
  SUB-14                     4.20       0.00       0.00       4.09       0.11       0.00       0.11        0.04    78.27   0.026
  SUB-140                    4.20       0.00       0.00       4.06       0.13       0.00       0.13        0.14   289.54   0.032
  SUB-142                    4.20       0.00       0.00       4.00       0.19       0.00       0.19        0.21   445.78   0.046
  SUB-146                    4.20       0.00       0.00       4.07       0.12       0.00       0.12        0.25   521.75   0.029
  SUB-148                    4.20       0.00       0.00       4.06       0.14       0.00       0.14        0.17   359.58   0.033
  SUB-150                    4.20       0.00       0.00       4.10       0.10       0.00       0.10        0.05   101.38   0.023
  SUB-152                    4.20       0.00       0.00       4.08       0.12       0.00       0.12        0.05   103.33   0.027
  SUB-154                    4.20       0.00       0.00       4.09       0.10       0.00       0.10        0.10   213.90   0.025
  SUB-156                    4.20       0.00       0.00       3.99       0.20       0.00       0.20        0.06   124.54   0.048
  SUB-158                    4.20       0.00       0.00       4.09       0.10       0.00       0.10        0.05   102.68   0.025
  SUB-16                     4.20       0.00       0.00       4.20       0.00       0.00       0.00        0.00     0.00   0.000
  SUB-160                    4.20       0.00       0.00       4.06       0.14       0.00       0.14        0.03    71.79   0.033
  SUB-162                    4.20       0.00       0.00       4.04       0.15       0.00       0.15        0.04    73.75   0.036
  SUB-164                    4.20       0.00       0.00       4.04       0.16       0.00       0.16        0.02    52.25   0.038
  SUB-166                    4.20       0.00       0.00       4.10       0.10       0.00       0.10        0.12   255.32   0.023
  SUB-168                    4.20       0.00       0.00       4.07       0.13       0.00       0.13        0.12   242.96   0.030
  SUB-170                    4.20       0.00       0.00       4.03       0.16       0.00       0.16        0.11   236.32   0.039
  SUB-172                    4.20       0.00       0.00       4.07       0.12       0.00       0.12        0.11   226.30   0.029
  SUB-174                    4.20       0.00       0.00       4.07       0.13       0.00       0.13        0.06   123.21   0.030
  SUB-176                    4.20       0.00       0.00       4.01       0.18       0.00       0.18        0.12   260.25   0.043
  SUB-178                    4.20       0.00       0.00       4.06       0.13       0.00       0.13        0.09   184.74   0.032
  SUB-18                     4.20       0.00       0.00       4.04       0.15       0.00       0.15        0.06   130.98   0.036
  SUB-180                    4.20       0.00       0.00       4.08       0.12       0.00       0.12        0.05    98.02   0.027
  SUB-182                    4.20       0.00       0.00       4.07       0.12       0.00       0.12        0.09   194.48   0.029
  SUB-184                    4.20       0.00       0.00       4.09       0.11       0.00       0.11        0.08   177.76   0.026
  SUB-186                    4.20       0.00       0.00       4.07       0.13       0.00       0.13        0.10   215.27   0.030
  SUB-188                    4.20       0.00       0.00       4.04       0.16       0.00       0.16        0.05   110.12   0.038
  SUB-190                    4.20       0.00       0.00       4.02       0.18       0.00       0.18        0.07   142.40   0.042
  SUB-192                    4.20       0.00       0.00       4.00       0.19       0.00       0.19        0.07   153.49   0.045
  SUB-194                    4.20       0.00       0.00       4.07       0.12       0.00       0.12        0.08   166.89   0.029
  SUB-196                    4.20       0.00       0.00       4.07       0.12       0.00       0.12        0.11   231.60   0.029
  SUB-198                    4.20       0.00       0.00       3.93       0.26       0.00       0.26        0.20   413.87   0.062
  SUB-20                     4.20       0.00       0.00       4.09       0.11       0.00       0.11        0.04    92.84   0.026
  SUB-200                    4.20       0.00       0.00       4.09       0.11       0.00       0.11        0.22   451.73   0.026
  SUB-204                    4.20       0.00       0.00       4.07       0.13       0.00       0.13        0.11   221.44   0.030
  SUB-206                    4.20       0.00       0.00       4.11       0.09       0.00       0.09        0.06   116.90   0.022
  SUB-208                    4.20       0.00       0.00       4.09       0.11       0.00       0.11        0.11   229.00   0.026
  SUB-210                    4.20       0.00       0.00       4.01       0.18       0.00       0.18        0.06   132.35   0.043
  SUB-212                    4.20       0.00       0.00       4.09       0.10       0.00       0.10        0.06   134.18   0.025
  SUB-214                    4.20       0.00       0.00       4.10       0.10       0.00       0.10        0.08   176.90   0.023
  SUB-216                    4.20       0.00       0.00       3.97       0.22       0.00       0.22        0.27   565.78   0.054
  SUB-218                    4.20       0.00       0.00       3.91       0.28       0.00       0.28        0.52  1088.18   0.067
  SUB-22                     4.20       0.00       0.00       4.13       0.07       0.00       0.07        0.06   134.85   0.016
  SUB-220                    4.20       0.00       0.00       4.07       0.12       0.00       0.12        0.21   449.06   0.029
  SUB-222                    4.20       0.00       0.00       4.09       0.11       0.00       0.11        0.17   362.42   0.026
  SUB-224                    4.20       0.00       0.00       4.06       0.13       0.00       0.13        0.20   417.51   0.032
  SUB-226                    4.20       0.00       0.00       3.91       0.28       0.00       0.28        0.12   261.52   0.067
  SUB-228                    4.20       0.00       0.00       3.89       0.30       0.00       0.30        0.17   348.61   0.072
  SUB-230                    4.20       0.00       0.00       3.92       0.27       0.00       0.27        0.14   295.06   0.064
  SUB-232                    4.20       0.00       0.00       4.00       0.19       0.00       0.19        0.05   114.44   0.045
  SUB-234                    4.20       0.00       0.00       3.99       0.21       0.00       0.21        0.04    75.30   0.049
  SUB-236                    4.20       0.00       0.00       4.07       0.13       0.00       0.13        0.06   128.52   0.030
  SUB-238                    4.20       0.00       0.00       4.12       0.08       0.00       0.08        0.05    94.81   0.019
  SUB-24                     4.20       0.00       0.00       4.07       0.12       0.00       0.12        0.08   162.17   0.029
  SUB-240                    4.20       0.00       0.00       4.14       0.06       0.00       0.06        0.01    28.26   0.014
  SUB-242                    4.20       0.00       0.00       4.07       0.13       0.00       0.13        0.27   557.09   0.030
  SUB-244                    4.20       0.00       0.00       4.02       0.17       0.00       0.17        0.06   129.90   0.041
  SUB-246                    4.20       0.00       0.00       3.78       0.41       0.00       0.41        0.59  1229.34   0.097
  SUB-248                    4.20       0.00       0.00       4.04       0.15       0.00       0.15        0.65  1357.35   0.036
  SUB-250                    4.20       0.00       0.00       4.06       0.13       0.00       0.13        0.04    74.44   0.032
  SUB-252                    4.20       0.00       0.00       4.06       0.14       0.00       0.14        0.06   120.04   0.033
  SUB-254                    4.20       0.00       0.00       4.06       0.14       0.00       0.14        0.42   870.41   0.033
  SUB-256                    4.20       0.00       0.00       4.04       0.16       0.00       0.16        0.06   135.66   0.038
  SUB-258                    4.20       0.00       0.00       4.01       0.18       0.00       0.18        0.07   147.97   0.043
  SUB-26                     4.20       0.00       0.00       4.01       0.18       0.00       0.18        0.19   400.61   0.043
  SUB-260                    4.20       0.00       0.00       3.98       0.21       0.00       0.21        0.32   676.84   0.051
  SUB-262                    4.20       0.00       0.00       4.17       0.03       0.00       0.03        0.01    31.24   0.007
  SUB-266                    4.20       0.00       0.00       3.94       0.25       0.00       0.25        0.06   118.93   0.059
  SUB-268                    4.20       0.00       0.00       3.96       0.23       0.00       0.23        0.02    33.04   0.055
  SUB-270                    4.20       0.00       0.00       3.92       0.27       0.00       0.27        0.02    47.39   0.064
  SUB-272                    4.20       0.00       0.00       3.98       0.21       0.00       0.21        0.09   188.81   0.051
  SUB-274                    4.20       0.00       0.00       4.01       0.18       0.00       0.18        0.10   204.63   0.043
  SUB-276                    4.20       0.00       0.00       3.94       0.25       0.00       0.25        0.20   419.37   0.059
  SUB-278                    4.20       0.00       0.00       4.02       0.18       0.00       0.18        0.28   591.84   0.042
  SUB-28                     4.20       0.00       0.00       4.06       0.13       0.00       0.13        0.05   101.27   0.032
  SUB-280                    4.20       0.00       0.00       3.99       0.21       0.00       0.21        0.12   246.70   0.049
  SUB-282                    4.20       0.00       0.00       4.01       0.18       0.00       0.18        0.17   366.26   0.043
  SUB-284                    4.20       0.00       0.00       4.02       0.17       0.00       0.17        0.13   274.29   0.041
  SUB-286                    4.20       0.00       0.00       4.00       0.19       0.00       0.19        0.09   184.81   0.046
  SUB-288                    4.20       0.00       0.00       4.00       0.19       0.00       0.19        0.26   536.21   0.045
  SUB-290                    4.20       0.00       0.00       4.09       0.11       0.00       0.11        0.04    81.68   0.026
  SUB-292                    4.20       0.00       0.00       3.95       0.24       0.00       0.24        0.84  1733.10   0.056
  SUB-294                    4.20       0.00       0.00       4.05       0.15       0.00       0.15        0.14   299.90   0.035
  SUB-296                    4.20       0.00       0.00       4.01       0.18       0.00       0.18        0.41   866.34   0.043
  SUB-298                    4.20       0.00       0.00       4.09       0.10       0.00       0.10        0.12   251.19   0.025
  SUB-30                     4.20       0.00       0.00       3.95       0.24       0.00       0.24        0.26   543.07   0.058
  SUB-302                    4.20       0.00       0.00       4.01       0.18       0.00       0.18        0.08   172.19   0.043
  SUB-304                    4.20       0.00       0.00       4.07       0.13       0.00       0.13        0.12   254.46   0.030
  SUB-306                    4.20       0.00       0.00       4.04       0.15       0.00       0.15        0.04    93.74   0.036
  SUB-308                    4.20       0.00       0.00       4.06       0.14       0.00       0.14        0.03    57.30   0.033
  SUB-310                    4.20       0.00       0.00       4.07       0.12       0.00       0.12        0.03    57.86   0.029
  SUB-312                    4.20       0.00       0.00       4.06       0.14       0.00       0.14        0.06   133.47   0.033
  SUB-314                    4.20       0.00       0.00       4.03       0.16       0.00       0.16        0.03    63.61   0.039
  SUB-316                    4.20       0.00       0.00       4.02       0.17       0.00       0.17        0.04    87.55   0.041
  SUB-318                    4.20       0.00       0.00       4.05       0.15       0.00       0.15        0.04    93.67   0.035
  SUB-32                     4.20       0.00       0.00       4.07       0.13       0.00       0.13        0.99  2057.98   0.030
  SUB-320                    4.20       0.00       0.00       3.95       0.24       0.00       0.24        0.05   106.93   0.058
  SUB-322                    4.20       0.00       0.00       3.97       0.22       0.00       0.22        0.08   158.20   0.054
  SUB-324                    4.20       0.00       0.00       3.92       0.27       0.00       0.27        0.27   561.14   0.065
  SUB-326                    4.20       0.00       0.00       4.09       0.11       0.00       0.11        0.10   217.49   0.026
  SUB-328                    4.20       0.00       0.00       4.07       0.12       0.00       0.12        0.13   265.76   0.029
  SUB-330                    4.20       0.00       0.00       4.05       0.15       0.00       0.15        0.17   349.35   0.035
  SUB-332                    4.20       0.00       0.00       3.86       0.33       0.00       0.33        0.15   309.28   0.078
  SUB-334                    4.20       0.00       0.00       4.16       0.04       0.00       0.04        0.01    11.97   0.010
  SUB-336                    4.20       0.00       0.00       4.08       0.12       0.00       0.12        0.04    93.96   0.027
  SUB-338                    4.20       0.00       0.00       4.06       0.14       0.00       0.14        0.07   141.61   0.033
  SUB-34                     4.20       0.00       0.00       4.14       0.06       0.00       0.06        0.14   297.40   0.014
  SUB-340                    4.20       0.00       0.00       4.12       0.07       0.00       0.07        0.06   129.62   0.017
  SUB-342                    4.20       0.00       0.00       4.08       0.12       0.00       0.12        0.08   159.36   0.027
  SUB-344                    4.20       0.00       0.00       4.07       0.13       0.00       0.13        0.10   207.81   0.030
  SUB-346                    4.20       0.00       0.00       4.03       0.16       0.00       0.16        0.03    64.81   0.039
  SUB-348                    4.20       0.00       0.00       4.04       0.16       0.00       0.16        0.18   380.33   0.038
  SUB-350                    4.20       0.00       0.00       4.04       0.16       0.00       0.16        0.04    76.84   0.038
  SUB-352                    4.20       0.00       0.00       4.06       0.13       0.00       0.13        0.02    36.27   0.032
  SUB-354                    4.20       0.00       0.00       4.10       0.10       0.00       0.10        0.01    16.76   0.023
  SUB-356                    4.20       0.00       0.00       4.20       0.00       0.00       0.00        0.00     0.00   0.000
  SUB-358                    4.20       0.00       0.00       4.20       0.00       0.00       0.00        0.00     0.00   0.000
  SUB-36                     4.20       0.00       0.00       4.13       0.07       0.00       0.07        0.13   267.49   0.016
  SUB-360                    4.20       0.00       0.00       4.19       0.01       0.00       0.01        0.00     0.96   0.003
  SUB-362                    4.20       0.00       0.00       4.20       0.00       0.00       0.00        0.00     0.00   0.000
  SUB-364                    4.20       0.00       0.00       4.08       0.12       0.00       0.12        0.06   116.11   0.027
  SUB-366                    4.20       0.00       0.00       4.04       0.15       0.00       0.15        0.15   305.02   0.036
  SUB-368                    4.20       0.00       0.00       4.09       0.11       0.00       0.11        0.17   353.09   0.026
  SUB-370                    4.20       0.00       0.00       4.06       0.13       0.00       0.13        0.20   417.21   0.032
  SUB-372                    4.20       0.00       0.00       4.11       0.09       0.00       0.09        0.07   143.75   0.020
  SUB-374                    4.20       0.00       0.00       3.81       0.38       0.00       0.38        0.16   333.76   0.090
  SUB-376                    4.20       0.00       0.00       4.09       0.10       0.00       0.10        0.12   247.32   0.025
  SUB-378                    4.20       0.00       0.00       4.07       0.13       0.00       0.13        0.12   250.75   0.030
  SUB-38                     4.20       0.00       0.00       4.14       0.06       0.00       0.06        0.04    78.55   0.014
  SUB-380                    4.20       0.00       0.00       4.19       0.01       0.00       0.01        0.10   200.60   0.001
  SUB-382                    4.20       0.00       0.00       4.06       0.13       0.00       0.13        0.13   281.27   0.032
  SUB-384                    4.20       0.00       0.00       4.00       0.19       0.00       0.19        0.04    76.34   0.045
  SUB-386                    4.20       0.00       0.00       4.10       0.10       0.00       0.10        0.03    70.53   0.023
  SUB-388                    4.20       0.00       0.00       4.12       0.08       0.00       0.08        0.02    38.93   0.019
  SUB-390                    4.20       0.00       0.00       4.07       0.12       0.00       0.12        0.04    81.97   0.029
  SUB-392                    4.20       0.00       0.00       3.97       0.22       0.00       0.22        0.07   157.12   0.054
  SUB-394                    4.20       0.00       0.00       4.00       0.19       0.00       0.19        0.11   233.64   0.046
  SUB-396                    4.20       0.00       0.00       3.97       0.22       0.00       0.22        0.20   419.29   0.052
  SUB-398                    4.20       0.00       0.00       4.05       0.15       0.00       0.15        0.12   252.96   0.035
  SUB-40                     4.20       0.00       0.00       4.07       0.12       0.00       0.12        0.03    68.97   0.029
  SUB-400                    4.20       0.00       0.00       4.02       0.18       0.00       0.18        0.06   118.67   0.042
  SUB-402                    4.20       0.00       0.00       3.97       0.22       0.00       0.22        0.10   213.05   0.052
  SUB-404                    4.20       0.00       0.00       3.93       0.26       0.00       0.26        0.08   160.02   0.062
  SUB-406                    4.20       0.00       0.00       4.01       0.18       0.00       0.18        0.08   164.45   0.043
  SUB-408                    4.20       0.00       0.00       3.97       0.22       0.00       0.22        0.02    48.68   0.054
  SUB-410                    4.20       0.00       0.00       3.91       0.28       0.00       0.28        0.07   156.31   0.067
  SUB-412                    4.20       0.00       0.00       3.97       0.22       0.00       0.22        0.05   107.76   0.054
  SUB-414                    4.20       0.00       0.00       4.00       0.19       0.00       0.19        0.13   274.96   0.045
  SUB-416                    4.20       0.00       0.00       3.99       0.20       0.00       0.20        0.10   204.69   0.048
  SUB-418                    4.20       0.00       0.00       3.94       0.25       0.00       0.25        0.03    66.28   0.059
  SUB-42                     4.20       0.00       0.00       4.11       0.09       0.00       0.09        0.04    84.50   0.020
  SUB-420                    4.20       0.00       0.00       3.95       0.24       0.00       0.24        0.13   272.67   0.058
  SUB-422                    4.20       0.00       0.00       3.97       0.22       0.00       0.22        0.07   137.50   0.054
  SUB-424                    4.20       0.00       0.00       3.99       0.20       0.00       0.20        0.03    60.05   0.048
  SUB-426                    4.20       0.00       0.00       4.02       0.18       0.00       0.18        0.10   213.01   0.042
  SUB-428                    4.20       0.00       0.00       4.00       0.19       0.00       0.19        0.06   126.31   0.046
  SUB-430                    4.20       0.00       0.00       3.97       0.22       0.00       0.22        0.10   205.19   0.052
  SUB-432                    4.20       0.00       0.00       4.00       0.19       0.00       0.19        0.07   147.66   0.046
  SUB-434                    4.20       0.00       0.00       3.94       0.25       0.00       0.25        0.14   301.92   0.059
  SUB-436                    4.20       0.00       0.00       3.83       0.35       0.00       0.35        0.26   552.73   0.084
  SUB-438                    4.20       0.00       0.00       3.94       0.26       0.00       0.26        0.09   190.54   0.061
  SUB-440                    4.20       0.00       0.00       4.00       0.19       0.00       0.19        0.11   224.09   0.045
  SUB-442                    4.20       0.00       0.00       3.95       0.24       0.00       0.24        0.07   151.42   0.058
  SUB-444                    4.20       0.00       0.00       4.02       0.18       0.00       0.18        0.18   376.13   0.042
  SUB-446                    4.20       0.00       0.00       4.00       0.19       0.00       0.19        0.25   533.18   0.045
  SUB-448                    4.20       0.00       0.00       4.07       0.12       0.00       0.12        0.01    19.60   0.029
  SUB-450                    4.20       0.00       0.00       4.06       0.13       0.00       0.13        0.03    72.07   0.032
  SUB-452                    4.20       0.00       0.00       3.92       0.27       0.00       0.27        0.18   376.45   0.065
  SUB-456                    4.20       0.00       0.00       4.10       0.10       0.00       0.10        0.01    19.71   0.023
  SUB-458                    4.20       0.00       0.00       4.07       0.12       0.00       0.12        0.02    49.82   0.029
  SUB-46                     4.20       0.00       0.00       3.97       0.22       0.00       0.22        0.25   522.40   0.054
  SUB-460                    4.20       0.00       0.00       4.00       0.19       0.00       0.19        0.07   143.68   0.045
  SUB-462                    4.20       0.00       0.00       4.06       0.13       0.00       0.13        0.05   112.55   0.032
  SUB-464                    4.20       0.00       0.00       3.87       0.32       0.00       0.32        0.17   355.88   0.075
  SUB-466                    4.20       0.00       0.00       3.92       0.27       0.00       0.27        0.16   340.05   0.065
  SUB-468                    4.20       0.00       0.00       4.05       0.15       0.00       0.15        0.07   137.90   0.035
  SUB-470                    4.20       0.00       0.00       4.03       0.16       0.00       0.16        0.10   214.96   0.039
  SUB-472                    4.20       0.00       0.00       4.08       0.12       0.00       0.12        0.04    76.93   0.027
  SUB-474                    4.20       0.00       0.00       4.06       0.14       0.00       0.14        0.02    35.96   0.033
  SUB-476                    4.20       0.00       0.00       4.04       0.15       0.00       0.15        0.03    69.95   0.036
  SUB-478                    4.20       0.00       0.00       3.99       0.20       0.00       0.20        0.05   111.45   0.048
  SUB-48                     4.20       0.00       0.00       4.09       0.10       0.00       0.10        0.13   276.39   0.025
  SUB-480                    4.20       0.00       0.00       4.11       0.09       0.00       0.09        0.03    59.90   0.020
  SUB-482                    4.20       0.00       0.00       3.95       0.24       0.00       0.24        0.09   188.80   0.056
  SUB-484                    4.20       0.00       0.00       3.80       0.39       0.00       0.39        0.03    58.70   0.093
  SUB-486                    4.20       0.00       0.00       3.87       0.32       0.00       0.32        0.08   175.79   0.077
  SUB-488                    4.20       0.00       0.00       4.02       0.18       0.00       0.18        0.07   148.89   0.042
  SUB-490                    4.20       0.00       0.00       3.83       0.36       0.00       0.36        0.12   242.81   0.085
  SUB-492                    4.20       0.00       0.00       3.85       0.34       0.00       0.34        0.23   484.44   0.081
  SUB-494                    4.20       0.00       0.00       3.81       0.38       0.00       0.38        0.10   199.59   0.090
  SUB-496                    4.20       0.00       0.00       3.89       0.30       0.00       0.30        0.05   110.76   0.071
  SUB-498                    4.20       0.00       0.00       3.93       0.26       0.00       0.26        0.08   158.15   0.062
  SUB-50                     4.20       0.00       0.00       4.07       0.13       0.00       0.13        0.08   159.87   0.030
  SUB-500                    4.20       0.00       0.00       3.96       0.23       0.00       0.23        0.07   147.51   0.055
  SUB-502                    4.20       0.00       0.00       3.97       0.22       0.00       0.22        0.08   166.08   0.054
  SUB-504                    4.20       0.00       0.00       3.84       0.35       0.00       0.35        0.12   252.58   0.082
  SUB-506                    4.20       0.00       0.00       4.04       0.16       0.00       0.16        0.10   206.94   0.038
  SUB-508                    4.20       0.00       0.00       3.94       0.26       0.00       0.26        0.12   251.88   0.061
  SUB-510                    4.20       0.00       0.00       3.97       0.22       0.00       0.22        0.07   144.33   0.052
  SUB-512                    4.20       0.00       0.00       3.94       0.25       0.00       0.25        0.07   140.26   0.059
  SUB-514                    4.20       0.00       0.00       3.94       0.26       0.00       0.26        0.06   123.80   0.061
  SUB-516                    4.20       0.00       0.00       3.99       0.21       0.00       0.21        0.05   112.26   0.049
  SUB-518                    4.20       0.00       0.00       3.96       0.23       0.00       0.23        0.09   197.10   0.055
  SUB-52                     4.20       0.00       0.00       4.07       0.13       0.00       0.13        0.06   129.03   0.030
  SUB-520                    4.20       0.00       0.00       3.91       0.28       0.00       0.28        0.10   208.34   0.067
  SUB-522                    4.20       0.00       0.00       3.94       0.26       0.00       0.26        0.11   237.03   0.061
  SUB-524                    4.20       0.00       0.00       3.95       0.24       0.00       0.24        0.12   254.43   0.058
  SUB-526                    4.20       0.00       0.00       3.94       0.26       0.00       0.26        0.16   328.64   0.061
  SUB-528                    4.20       0.00       0.00       3.90       0.29       0.00       0.29        0.07   150.45   0.069
  SUB-530                    4.20       0.00       0.00       3.94       0.26       0.00       0.26        0.12   256.31   0.061
  SUB-532                    4.20       0.00       0.00       3.95       0.24       0.00       0.24        0.05    97.06   0.056
  SUB-534                    4.20       0.00       0.00       3.90       0.29       0.00       0.29        0.06   124.79   0.069
  SUB-536                    4.20       0.00       0.00       3.92       0.27       0.00       0.27        0.04    89.51   0.065
  SUB-538                    4.20       0.00       0.00       3.90       0.29       0.00       0.29        0.08   175.76   0.068
  SUB-54                     4.20       0.00       0.00       4.09       0.11       0.00       0.11        0.08   170.14   0.026
  SUB-540                    4.20       0.00       0.00       3.96       0.23       0.00       0.23        0.01    22.75   0.055
  SUB-542                    4.20       0.00       0.00       3.84       0.35       0.00       0.35        0.11   223.85   0.082
  SUB-544                    4.20       0.00       0.00       3.88       0.31       0.00       0.31        0.05   112.41   0.074
  SUB-546                    4.20       0.00       0.00       3.88       0.31       0.00       0.31        0.08   162.07   0.074
  SUB-548                    4.20       0.00       0.00       3.87       0.32       0.00       0.32        0.04    78.59   0.075
  SUB-550                    4.20       0.00       0.00       3.92       0.27       0.00       0.27        0.04    74.30   0.064
  SUB-552                    4.20       0.00       0.00       3.92       0.27       0.00       0.27        0.54  1125.59   0.065
  SUB-554                    4.20       0.00       0.00       3.96       0.23       0.00       0.23        0.18   376.25   0.055
  SUB-556                    4.20       0.00       0.00       3.98       0.21       0.00       0.21        0.13   278.87   0.051
  SUB-558                    4.20       0.00       0.00       3.99       0.21       0.00       0.21        0.13   282.67   0.049
  SUB-56                     4.20       0.00       0.00       4.06       0.13       0.00       0.13        0.09   179.78   0.032
  SUB-560                    4.20       0.00       0.00       3.95       0.24       0.00       0.24        0.12   245.64   0.058
  SUB-562                    4.20       0.00       0.00       4.07       0.12       0.00       0.12        0.07   156.83   0.029
  SUB-564                    4.20       0.00       0.00       3.86       0.33       0.00       0.33        0.11   230.21   0.078
  SUB-566                    4.20       0.00       0.00       3.89       0.30       0.00       0.30        0.02    50.84   0.072
  SUB-568                    4.20       0.00       0.00       3.85       0.34       0.00       0.34        0.04    93.17   0.081
  SUB-570                    4.20       0.00       0.00       3.88       0.31       0.00       0.31        0.05   105.85   0.074
  SUB-572                    4.20       0.00       0.00       3.83       0.35       0.00       0.35        0.04    88.63   0.084
  SUB-574                    4.20       0.00       0.00       3.81       0.38       0.00       0.38        0.07   148.79   0.090
  SUB-576                    4.20       0.00       0.00       3.77       0.42       0.00       0.42        0.03    53.52   0.100
  SUB-578                    4.20       0.00       0.00       3.89       0.30       0.00       0.30        0.07   138.36   0.072
  SUB-58                     4.20       0.00       0.00       4.07       0.13       0.00       0.13        0.04    75.24   0.030
  SUB-580                    4.20       0.00       0.00       3.77       0.42       0.00       0.42        0.08   175.08   0.100
  SUB-582                    4.20       0.00       0.00       3.88       0.30       0.00       0.30        0.10   214.57   0.072
  SUB-584                    4.20       0.00       0.00       3.87       0.32       0.00       0.32        0.13   262.85   0.077
  SUB-586                    4.20       0.00       0.00       3.95       0.24       0.00       0.24        0.25   530.79   0.058
  SUB-588                    4.20       0.00       0.00       3.82       0.36       0.00       0.36        0.05    95.73   0.087
  SUB-590                    4.20       0.00       0.00       3.87       0.32       0.00       0.32        0.02    50.38   0.075
  SUB-592                    4.20       0.00       0.00       3.86       0.33       0.00       0.33        0.04    84.62   0.078
  SUB-594                    4.20       0.00       0.00       3.90       0.29       0.00       0.29        0.07   152.83   0.068
  SUB-596                    4.20       0.00       0.00       3.91       0.28       0.00       0.28        0.35   736.84   0.067
  SUB-598                    4.20       0.00       0.00       3.89       0.30       0.00       0.30        0.09   183.37   0.072
  SUB-600                    4.20       0.00       0.00       3.90       0.29       0.00       0.29        0.04    93.48   0.068
  SUB-602                    4.20       0.00       0.00       3.78       0.41       0.00       0.41        0.08   166.58   0.097
  SUB-604                    4.20       0.00       0.00       3.94       0.26       0.00       0.26        0.11   240.23   0.061
  SUB-606                    4.20       0.00       0.00       3.92       0.27       0.00       0.27        0.20   430.04   0.064
  SUB-608                    4.20       0.00       0.00       3.92       0.27       0.00       0.27        0.20   424.70   0.065
  SUB-610                    4.20       0.00       0.00       3.97       0.22       0.00       0.22        0.09   189.99   0.054
  SUB-612                    4.20       0.00       0.00       3.99       0.21       0.00       0.21        0.18   375.10   0.049
  SUB-614                    4.20       0.00       0.00       4.04       0.16       0.00       0.16        0.08   178.39   0.038
  SUB-616                    4.20       0.00       0.00       3.94       0.26       0.00       0.26        0.09   180.58   0.061
  SUB-618                    4.20       0.00       0.00       4.00       0.19       0.00       0.19        0.09   197.86   0.046
  SUB-62                     4.20       0.00       0.00       4.08       0.12       0.00       0.12        0.06   132.73   0.027
  SUB-620                    4.20       0.00       0.00       3.95       0.24       0.00       0.24        0.16   337.99   0.056
  SUB-622                    4.20       0.00       0.00       3.91       0.28       0.00       0.28        0.04    93.49   0.067
  SUB-624                    4.20       0.00       0.00       3.89       0.30       0.00       0.30        0.24   508.40   0.071
  SUB-626                    4.20       0.00       0.00       3.92       0.27       0.00       0.27        0.02    44.24   0.065
  SUB-628                    4.20       0.00       0.00       3.87       0.32       0.00       0.32        0.02    39.43   0.077
  SUB-630                    4.20       0.00       0.00       3.90       0.29       0.00       0.29        0.08   178.11   0.069
  SUB-632                    4.20       0.00       0.00       3.89       0.30       0.00       0.30        0.12   252.79   0.071
  SUB-634                    4.20       0.00       0.00       3.92       0.27       0.00       0.27        0.21   444.16   0.064
  SUB-636                    4.20       0.00       0.00       3.97       0.22       0.00       0.22        0.07   143.35   0.054
  SUB-638                    4.20       0.00       0.00       3.81       0.38       0.00       0.38        0.23   479.19   0.090
  SUB-64                     4.20       0.00       0.00       4.10       0.10       0.00       0.10        0.03    63.50   0.023
  SUB-640                    4.20       0.00       0.00       3.83       0.36       0.00       0.36        0.26   549.39   0.085
  SUB-642                    4.20       0.00       0.00       3.99       0.20       0.00       0.20        0.06   131.41   0.048
  SUB-644                    4.20       0.00       0.00       3.99       0.20       0.00       0.20        0.03    71.45   0.048
  SUB-646                    4.20       0.00       0.00       3.90       0.29       0.00       0.29        0.03    54.78   0.068
  SUB-648                    4.20       0.00       0.00       4.11       0.09       0.00       0.09        0.01    15.63   0.020
  SUB-650                    4.20       0.00       0.00       4.00       0.19       0.00       0.19        0.02    34.34   0.045
  SUB-652                    4.20       0.00       0.00       3.76       0.43       0.00       0.43        0.02    40.76   0.101
  SUB-654                    4.20       0.00       0.00       4.02       0.18       0.00       0.18        0.03    68.78   0.042
  SUB-656                    4.20       0.00       0.00       3.83       0.35       0.00       0.35        0.11   231.12   0.084
  SUB-658                    4.20       0.00       0.00       3.92       0.27       0.00       0.27        0.01    19.67   0.065
  SUB-66                     4.20       0.00       0.00       4.10       0.10       0.00       0.10        0.06   136.29   0.023
  SUB-660                    4.20       0.00       0.00       4.06       0.13       0.00       0.13        0.01    22.51   0.032
  SUB-662                    4.20       0.00       0.00       4.04       0.15       0.00       0.15        0.01    25.93   0.036
  SUB-664                    4.20       0.00       0.00       4.01       0.18       0.00       0.18        0.01    18.01   0.043
  SUB-666                    4.20       0.00       0.00       3.75       0.44       0.00       0.44        0.04    76.67   0.104
  SUB-668                    4.20       0.00       0.00       3.91       0.28       0.00       0.28        0.01    28.74   0.067
  SUB-670                    4.20       0.00       0.00       3.93       0.26       0.00       0.26        0.06   125.01   0.062
  SUB-672                    4.20       0.00       0.00       3.80       0.39       0.00       0.39        0.04    80.97   0.093
  SUB-674                    4.20       0.00       0.00       3.77       0.42       0.00       0.42        0.09   185.73   0.100
  SUB-676                    4.20       0.00       0.00       3.94       0.25       0.00       0.25        0.06   132.21   0.059
  SUB-678                    4.20       0.00       0.00       3.86       0.33       0.00       0.33        0.06   122.05   0.078
  SUB-68                     4.20       0.00       0.00       4.11       0.09       0.00       0.09        0.01    29.62   0.022
  SUB-680                    4.20       0.00       0.00       3.68       0.50       0.00       0.50        0.03    54.80   0.120
  SUB-682                    4.20       0.00       0.00       3.80       0.38       0.00       0.38        0.09   178.46   0.091
  SUB-684                    4.20       0.00       0.00       4.00       0.19       0.00       0.19        0.02    37.22   0.045
  SUB-686                    4.20       0.00       0.00       3.85       0.34       0.00       0.34        0.08   175.78   0.081
  SUB-688                    4.20       0.00       0.00       3.82       0.36       0.00       0.36        0.03    54.86   0.087
  SUB-690                    4.20       0.00       0.00       3.85       0.34       0.00       0.34        0.03    57.00   0.081
  SUB-692                    4.20       0.00       0.00       3.83       0.36       0.00       0.36        0.05    95.10   0.085
  SUB-694                    4.20       0.00       0.00       3.77       0.41       0.00       0.41        0.04    77.71   0.098
  SUB-696                    4.20       0.00       0.00       3.87       0.32       0.00       0.32        0.03    56.02   0.075
  SUB-698                    4.20       0.00       0.00       3.89       0.30       0.00       0.30        0.02    44.63   0.071
  SUB-700                    4.20       0.00       0.00       3.86       0.33       0.00       0.33        0.07   155.91   0.078
  SUB-702                    4.20       0.00       0.00       3.85       0.34       0.00       0.34        0.04    88.95   0.081
  SUB-704                    4.20       0.00       0.00       3.78       0.41       0.00       0.41        0.12   249.83   0.097
  SUB-706                    4.20       0.00       0.00       3.85       0.34       0.00       0.34        0.06   130.59   0.081
  SUB-708                    4.20       0.00       0.00       3.85       0.34       0.00       0.34        0.07   148.36   0.081
  SUB-710                    4.20       0.00       0.00       3.93       0.26       0.00       0.26        0.08   176.41   0.062
  SUB-712                    4.20       0.00       0.00       3.91       0.28       0.00       0.28        0.03    63.30   0.067
  SUB-714                    4.20       0.00       0.00       3.80       0.39       0.00       0.39        0.01    18.17   0.093
  SUB-716                    4.20       0.00       0.00       4.00       0.19       0.00       0.19        0.05   102.52   0.046
  SUB-718                    4.20       0.00       0.00       3.60       0.58       0.00       0.58        0.06   117.92   0.137
  SUB-72                     4.20       0.00       0.00       4.10       0.10       0.00       0.10        0.07   136.67   0.023
  SUB-720                    4.20       0.00       0.00       4.09       0.11       0.00       0.11        0.13   265.23   0.026
  SUB-722                    4.20       0.00       0.00       3.97       0.22       0.00       0.22        0.19   397.56   0.052
  SUB-724                    4.20       0.00       0.00       3.80       0.38       0.00       0.38        0.06   132.40   0.091
  SUB-726                    4.20       0.00       0.00       3.83       0.35       0.00       0.35        0.01    25.32   0.084
  SUB-728                    4.20       0.00       0.00       3.85       0.34       0.00       0.34        0.03    54.83   0.081
  SUB-730                    4.20       0.00       0.00       3.83       0.35       0.00       0.35        0.07   139.16   0.084
  SUB-732                    4.20       0.00       0.00       3.82       0.36       0.00       0.36        0.06   121.36   0.087
  SUB-734                    4.20       0.00       0.00       3.70       0.49       0.00       0.49        0.22   460.32   0.116
  SUB-736                    4.20       0.00       0.00       4.02       0.18       0.00       0.18        0.08   176.96   0.042
  SUB-738                    4.20       0.00       0.00       4.09       0.10       0.00       0.10        0.03    54.24   0.025
  SUB-740                    4.20       0.00       0.00       4.06       0.14       0.00       0.14        0.02    37.60   0.033
  SUB-742                    4.20       0.00       0.00       4.06       0.13       0.00       0.13        0.04    78.51   0.032
  SUB-744                    4.20       0.00       0.00       4.00       0.19       0.00       0.19        0.11   231.42   0.045
  SUB-746                    4.20       0.00       0.00       4.04       0.15       0.00       0.15        0.03    62.94   0.036
  SUB-748                    4.20       0.00       0.00       4.06       0.14       0.00       0.14        0.03    65.21   0.033
  SUB-750                    4.20       0.00       0.00       4.01       0.18       0.00       0.18        0.02    51.38   0.043
  SUB-752                    4.20       0.00       0.00       3.95       0.24       0.00       0.24        0.06   126.99   0.056
  SUB-754                    4.20       0.00       0.00       4.07       0.12       0.00       0.12        0.02    36.94   0.029
  SUB-756                    4.20       0.00       0.00       3.95       0.24       0.00       0.24        0.04    89.53   0.056
  SUB-758                    4.20       0.00       0.00       4.04       0.15       0.00       0.15        0.02    36.39   0.036
  SUB-76                     4.20       0.00       0.00       4.00       0.19       0.00       0.19        0.03    60.79   0.046
  SUB-760                    4.20       0.00       0.00       4.04       0.15       0.00       0.15        0.03    60.90   0.036
  SUB-762                    4.20       0.00       0.00       3.92       0.27       0.00       0.27        0.05    98.82   0.065
  SUB-764                    4.20       0.00       0.00       3.94       0.25       0.00       0.25        0.13   269.02   0.059
  SUB-766                    4.20       0.00       0.00       4.12       0.08       0.00       0.08        0.01    17.87   0.019
  SUB-768                    4.20       0.00       0.00       4.20       0.00       0.00       0.00        0.00     0.00   0.000
  SUB-770                    4.20       0.00       0.00       4.20       0.00       0.00       0.00        0.00     0.00   0.000
  SUB-772                    4.20       0.00       0.00       4.19       0.01       0.00       0.01        0.00     0.28   0.001
  SUB-774                    4.20       0.00       0.00       3.68       0.50       0.00       0.50        0.09   195.14   0.119
  SUB-776                    4.20       0.00       0.00       3.57       0.61       0.00       0.61        0.08   170.84   0.145
  SUB-778                    4.20       0.00       0.00       3.76       0.43       0.00       0.43        0.02    39.82   0.101
  SUB-780                    4.20       0.00       0.00       3.71       0.47       0.00       0.47        0.03    60.66   0.111
  SUB-782                    4.20       0.00       0.00       3.57       0.61       0.00       0.61        0.01    30.25   0.145
  SUB-784                    4.20       0.00       0.00       3.69       0.49       0.00       0.49        0.05   113.07   0.117
  SUB-786                    4.20       0.00       0.00       3.83       0.36       0.00       0.36        0.06   134.67   0.085
  SUB-788                    4.20       0.00       0.00       3.63       0.55       0.00       0.55        0.10   213.90   0.130
  SUB-790                    4.20       0.00       0.00       3.78       0.41       0.00       0.41        0.08   170.40   0.097
  SUB-792                    4.20       0.00       0.00       3.89       0.30       0.00       0.30        0.01    19.75   0.071
  SUB-794                    4.20       0.00       0.00       3.68       0.50       0.00       0.50        0.12   243.21   0.119
  SUB-796                    4.20       0.00       0.00       3.66       0.52       0.00       0.52        0.14   284.28   0.123
  SUB-798                    4.20       0.00       0.00       3.76       0.43       0.00       0.43        0.08   168.99   0.101
  SUB-80                     4.20       0.00       0.00       4.06       0.14       0.00       0.14        0.02    38.20   0.033
  SUB-800                    4.20       0.00       0.00       3.75       0.44       0.00       0.44        0.03    59.38   0.104
  SUB-802                    4.20       0.00       0.00       4.14       0.06       0.00       0.06        0.00     5.11   0.014
  SUB-804                    4.20       0.00       0.00       4.17       0.03       0.00       0.03        0.00     7.74   0.007
  SUB-806                    4.20       0.00       0.00       4.14       0.06       0.00       0.06        0.00     8.71   0.014
  SUB-808                    4.20       0.00       0.00       4.10       0.10       0.00       0.10        0.01    12.83   0.023
  SUB-810                    4.20       0.00       0.00       4.00       0.19       0.00       0.19        0.01    28.26   0.046
  SUB-812                    4.20       0.00       0.00       4.20       0.00       0.00       0.00        0.00     0.00   0.000
  SUB-814                    4.20       0.00       0.00       4.20       0.00       0.00       0.00        0.00     0.00   0.000
  SUB-816                    4.20       0.00       0.00       4.08       0.12       0.00       0.12        0.00     0.98   0.027
  SUB-818                    4.20       0.00       0.00       4.07       0.13       0.00       0.13        0.02    32.74   0.030
  SUB-82                     4.20       0.00       0.00       4.09       0.11       0.00       0.11        0.08   167.93   0.026
  SUB-820                    4.20       0.00       0.00       4.06       0.14       0.00       0.14        0.02    34.72   0.033
  SUB-822                    4.20       0.00       0.00       4.06       0.14       0.00       0.14        0.01    25.98   0.033
  SUB-824                    4.20       0.00       0.00       4.13       0.07       0.00       0.07        0.00     7.16   0.016
  SUB-826                    4.20       0.00       0.00       4.02       0.17       0.00       0.17        0.01    22.44   0.041
  SUB-828                    4.20       0.00       0.00       4.20       0.00       0.00       0.00        0.00     0.00   0.000
  SUB-830                    4.20       0.00       0.00       4.17       0.02       0.00       0.02        0.00     1.56   0.006
  SUB-832                    4.20       0.00       0.00       3.95       0.24       0.00       0.24        0.01    17.31   0.058
  SUB-834                    4.20       0.00       0.00       4.07       0.13       0.00       0.13        0.16   331.71   0.030
  SUB-836                    4.20       0.00       0.00       4.19       0.01       0.00       0.01        0.00     1.08   0.001
  SUB-838                    4.20       0.00       0.00       4.11       0.09       0.00       0.09        0.06   125.41   0.021
  SUB-84                     4.20       0.00       0.00       4.06       0.13       0.00       0.13        0.05   107.37   0.032
  SUB-840                    4.20       0.00       0.00       4.11       0.09       0.00       0.09        0.05   103.11   0.021
  SUB-842                    4.20       0.00       0.00       4.07       0.12       0.00       0.12        0.04    72.13   0.030
  SUB-844                    4.20       0.00       0.00       3.90       0.29       0.00       0.29        0.53   850.00   0.070
  SUB-86                     4.20       0.00       0.00       4.04       0.16       0.00       0.16        0.07   148.50   0.038
  SUB-88                     4.20       0.00       0.00       4.08       0.12       0.00       0.12        0.10   203.52   0.027
  SUB-90                     4.20       0.00       0.00       4.06       0.13       0.00       0.13        0.12   259.35   0.032
  SUB-92                     4.20       0.00       0.00       4.06       0.14       0.00       0.14        0.10   200.08   0.033
  SUB-94                     4.20       0.00       0.00       4.11       0.09       0.00       0.09        0.03    63.47   0.022
  SUB-96                     4.20       0.00       0.00       4.02       0.17       0.00       0.17        0.43   893.11   0.040
  SUB-98                     4.20       0.00       0.00       3.97       0.22       0.00       0.22        0.03    71.00   0.052
  
  
  ****************************
  Subcatchment Washoff Summary
  ****************************
  
  --------------------------------------------------------------
                                RDII           DWF        RUNOFF
  Subcatchment                   lbs           lbs           lbs
  --------------------------------------------------------------
  SUB-10                       0.000         0.000        21.343
  SUB-100                      0.000         0.000       168.065
  SUB-102                      0.000         0.000         8.096
  SUB-104                      0.000         0.000       281.633
  SUB-106                      0.000         0.000       267.687
  SUB-108                      0.000         0.000        88.178
  SUB-110                      0.000         0.000        70.816
  SUB-112                      0.000         0.000        79.628
  SUB-114                      0.000         0.000        32.069
  SUB-116                      0.000         0.000        60.805
  SUB-12                       0.000         0.000        16.325
  SUB-120                      0.000         0.000        24.553
  SUB-122                      0.000         0.000        36.889
  SUB-124                      0.000         0.000        42.289
  SUB-126                      0.000         0.000        48.628
  SUB-128                      0.000         0.000        97.746
  SUB-130                      0.000         0.000        81.723
  SUB-132                      0.000         0.000        79.513
  SUB-134                      0.000         0.000        49.250
  SUB-136                      0.000         0.000        83.012
  SUB-138                      0.000         0.000        32.652
  SUB-14                       0.000         0.000        30.394
  SUB-140                      0.000         0.000       112.275
  SUB-142                      0.000         0.000       173.430
[...]
  932                          0.000         0.577         0.000
  933                          0.000         9.890         0.000
  934                          9.214        10.554        89.757
  935                          7.887        10.116        75.612
  936                          7.893        10.647        75.594
  937                          7.885        10.686        75.624
  938                         62.458        99.498       670.311
  939                          0.000         0.046         0.000
  94                           2.556         9.404        30.358
  940                          1.335         2.030        14.123
  941                          1.335         2.528        14.122
  942                          1.335         3.163        14.125
  943                          0.000         2.162         0.000
  944                          0.000         0.396         0.000
  948                         19.796        19.173       243.039
  949                          0.000         5.299         0.000
  95                          25.487        24.704       251.097
  950                          0.000         9.460         0.000
  951                          0.000         9.504         0.000
  952                          0.000         6.822         0.000
  953                          0.000         7.629         0.000
  954                          5.562         7.675        51.483
  955                          0.000         1.249         0.000
  956                          0.000         1.817         0.000
  957                          0.000        20.508         0.000
  958                          0.000        21.206         0.000
  959                         14.593        29.417       139.117
  96                          25.529        26.147       250.925
  960                          0.000         0.637         0.000
  961                          0.000         1.795         0.000
  962                          0.000         2.361         0.000
  963                          0.000         2.894         0.000
  966                          0.000        17.857         0.000
  967                          0.000        17.848         0.000
  968                          0.000        17.840         0.000
  969                          0.000         0.000         0.000
  97                          27.586        27.385       276.035
  970                          0.000         0.000         0.000
  971                          0.000         0.000         0.000
  972                          0.000         0.000         0.000
  973                          0.000         0.046         0.000
  974                          0.000         1.445         0.000
  975                          0.000         1.444         0.000
  976                          0.000         0.360         0.000
  977                          0.000         0.582         0.000
  978                          0.000         1.391         0.000
  979                          0.000         1.948         0.000
  98                          27.589        28.153       276.018
  980                          4.507         3.597        57.961
  981                          4.551         4.425        57.732
  982                        201.415       276.602      2521.950
  983                        201.519       277.145      2521.508
  984                        208.288       282.938      2592.784
  985                        212.508       288.884      2630.372
  986                        212.709       292.986      2629.648
  987                        220.653       294.676      2704.336
  988                        220.840       294.827      2703.629
  989                        221.309       304.734      2701.854
  99                          27.639        28.901       275.827
  990                        221.232       305.040      2701.972
  991                        225.062       306.059      2742.949
  992                          0.000         0.184         0.000
  CDT-103                      0.000         2.533         0.000
  CDT-105                      3.752        17.541        32.496
  CDT-107                      0.000         1.244         0.000
  CDT-109                      9.239        13.882        94.108
  CDT-111                      0.000        10.005         0.000
  CDT-113                     95.843       221.795      1460.969
  CDT-115                      0.000         0.000         0.000
  CDT-117                      0.000         0.000         0.000
  CDT-119                      1.333         1.291        14.128
  CDT-121                      0.000        16.073         0.000
  CDT-123                      0.000        20.456         0.000
  CDT-125                      0.000         0.000         0.000
  CDT-127                      0.000         0.000         0.000
  CDT-131                     36.731       300.849       679.061
  CDT-135                      0.000         0.046         0.000
  CDT-137                      0.000         0.000         0.000
  CDT-139                      0.000         1.219         0.000
  CDT-141                     18.611        47.187       535.870
  CDT-147                      0.000         0.893         0.000
  CDT-149                     78.607        13.191       796.132
  CDT-151                      6.251        10.245        55.717
  CDT-153                      0.000        18.239         0.000
  CDT-157                     14.960        27.915       181.180
  CDT-159                      1.851         0.422        72.415
  CDT-161                      1.864         0.428        72.165
  CDT-163                     47.422       204.048       454.305
  CDT-165                    117.268       247.043      1674.785
  CDT-167                     45.359       240.799       399.717
  CDT-169                    590.219       825.695      6292.551
  CDT-171                      0.000         4.641         0.000
  CDT-173                     88.982       195.413      1442.822
  CDT-177                     19.691        22.819       271.856
  CDT-183                      4.395        69.279        31.832
  CDT-191                     33.066       284.298       629.789
  CDT-193                     33.928       284.311       639.516
  CDT-195                      0.008         0.009         0.253
  CDT-197                     10.608       109.834       207.247
  CDT-201                    168.329       770.678      2985.750
  CDT-203                      0.206         2.973         5.686
  CDT-207                      0.000        13.498         0.000
  CDT-213                      7.158        65.377       154.403
  CDT-215                      8.428        70.392       187.628
  CDT-221                      2.754         2.091        26.762
  CDT-225                      0.000         0.000         0.000
  CDT-233                      0.000         0.000         0.000
  CDT-241                    532.431       765.785      5833.863
  CDT-243                      0.000        49.776         0.000
  CDT-245                      0.000        17.511         0.000
  CDT-247                      0.000         0.000         0.000
  CDT-249                      0.000         2.472         0.000
  CDT-251                      0.000         3.468         0.000
  CDT-253                      0.000         4.682         0.000
  CDT-255                     16.278       102.229       341.273
  CDT-257                      0.000        10.342         0.000
  CDT-259                      0.000         0.250         0.000
  CDT-261                     14.681        58.053       275.375
  CDT-263                      0.000        20.317         0.000
  CDT-265                      0.000        32.728         0.000
  CDT-267                      4.024        35.828        95.041
  CDT-269                      0.000        14.500         0.000
  CDT-273                     25.237       258.597       448.903
  CDT-275                      3.277        50.780        24.829
  CDT-277                      3.265        48.094        24.908
  CDT-279                     36.808       300.883       678.169
  CDT-281                      0.000         0.000         0.000
  CDT-283                      0.000         0.000         0.000
  CDT-285                      0.520         0.000         0.000
  CDT-287                      0.000         0.000         0.000
  CDT-289                      0.000         0.000         0.000
  CDT-291                      0.000         0.000         0.000
  CDT-293                      0.000         0.000         0.000
  CDT-295                      0.000         0.000         0.000
  CDT-297                      0.000         0.000         0.000
  CDT-299                      0.000         1.259         0.000
  CDT-301                      0.000         0.000         0.000
  CDT-303                     78.015        19.720       711.319
  CDT-305                      9.942         0.253       140.059
  CDT-309                    312.757      1317.652      5632.264
  CDT-313                      0.000         0.000         0.000
  CDT-321                     59.750        56.125       846.143
  CDT-323                      1.662         1.520        35.489
  CDT-325                      0.000         0.000         0.000
  CDT-327                      0.000         0.000         0.000
  CDT-329                      0.000         0.000         0.000
  CDT-331                      0.000         0.621         0.000
  CDT-333                      0.000         0.619         0.000
  CDT-335                      0.000         0.607         0.000
  CDT-337                      0.000         0.604         0.000
  CDT-339                      0.000         0.604         0.000
  CDT-341                      0.000         0.000         0.000
  CDT-343                      0.000         0.000         0.000
  CDT-345                      0.000         0.000         0.000
  CDT-347                      0.000         0.000         0.000
  CDT-349                      0.000         0.000         0.000
  CDT-351                      0.000         0.000         0.000
  CDT-353                      0.000         0.000         0.000
  CDT-355                      0.000         0.000         0.000
  CDT-357                      0.000         0.603         0.000
  CDT-359                      0.000         0.602         0.000
  CDT-361                      0.000         0.600         0.000
  CDT-363                      0.000         0.596         0.000
  CDT-365                      0.000         0.595         0.000
  CDT-367                      0.000         0.596         0.000
  CDT-369                      0.000         0.591         0.000
  CDT-371                      0.000         0.000         0.000
  CDT-373                      0.000         1.529         0.000
  CDT-375                      0.000         0.000         0.000
  CDT-377                      0.000         0.000         0.000
  CDT-379                      0.000         1.528         0.000
  CDT-381                      0.000         0.000         0.000
  CDT-383                      0.000         0.365         0.000
  CDT-385                      0.000         0.359         0.000
  CDT-387                      0.000         0.358         0.000
  CDT-389                      0.000         0.357         0.000
  CDT-391                      0.000         0.356         0.000
  CDT-393                      0.000         0.243         0.000
  CDT-395                      0.000         0.244         0.000
  CDT-397                      0.000         0.000         0.000
  CDT-399                      0.000         0.000         0.000
  CDT-401                      0.000         0.000         0.000
  CDT-403                      0.000         0.418         0.000
  CDT-405                    126.862       394.862      1316.015
  CDT-43                       0.000         0.000         0.000
  CDT-63                       0.000         0.000         0.000
  CDT-65                       0.000         0.000         0.000
  CDT-67                       0.000         0.000         0.000
  CDT-69                       0.000         0.000         0.000
  CDT-71                       0.000         0.000         0.000
  CDT-73                       0.000         1.998         0.000
  CDT-75                      15.627        46.166       238.089
  CDT-77                       1.032        13.557        25.320
  CDT-79                      72.388       271.851      1206.556
  CDT-81                       0.000        15.693         0.000
  CDT-83                       0.000         0.000         0.000
  CDT-89                       0.000         1.459         0.000
  CDT-91                       0.000         0.291         0.000
  CDT-93                       0.561         0.254         9.895
  CDT-95                       0.000         0.046         0.000
  CDT-97                       0.000         0.000         0.000
  CDT-99                     518.298       761.485      5844.641
  ORI-21                       5.756        11.850       143.062
  7145                       196.652       271.959      2465.149
  7157                         0.000         0.216         0.000
  7502                         0.000         0.000         0.000
  CDT-15                       1.564         0.046        27.897
  CDT-21                       0.000         3.430         0.000
  CDT-25                       0.000         1.289         0.000
  CDT-33                      15.929        19.174       182.249
  PUMP-13                      9.694        25.933       208.921
  PUMP-15                      0.000         0.000         0.000
  PUMP-19                     62.456       235.858      1158.583
  PUMP-21                      0.000         0.000         0.000
  PUMP-23                    680.168       761.752      6018.243
  PUMP-25                    747.877      1831.468      9149.658
  PUMP-27                   1264.282      3293.204     1.782e+04
  PUMP-29                      0.000         0.000         0.000
  PUMP-31                      0.000         0.000         0.000
  PUMP-33                     10.437        44.619       352.717
  PUMP-37                    300.116      1311.514      5453.738
  PUMP-39                      7.574        21.592       360.200
  PUMP-41                      0.000         5.451         0.000
  PUMP-43                      0.000         0.705         0.000
  PUMP-45                      0.000         0.000         0.000
  PUMP-47                      0.000        10.188         0.000
  PUMP-51                    169.530        59.349        82.820
  PUMP-55                      0.000         0.000         0.000
  PUMP-57                      0.000         0.000         0.000
  PUMP-59                      0.000         0.000         0.000
  PUMP-61                      0.000         0.000         0.000
  PUMP-63                      0.000         0.000         0.000
  2670                        36.380        51.771       450.696
  3794                         0.000         0.893         0.000
  4311                        58.803       185.819      1037.438
  4590                        10.154        14.215       163.745
  4672                         2.984         2.920        36.415
  4714                         0.000         4.532         0.000
  5411                        18.364        50.444       262.544
  6598                        17.844        63.425       330.652
  6888                        54.317        97.326       423.040
  7829                         0.000        13.465         0.000
  7904                         5.427        98.296       106.840
  CDT-187                     68.037       109.938       839.175
  CDT-223                      6.173        44.971       131.460
  CDT-227                      0.000         0.000         0.000
  CDT-235                     16.767        33.155       186.738
  CDT-237                      1.983         3.828        22.251
  ORI-11                       1.877         1.868        24.733
  ORI-13                       2.486         3.035        34.075
  ORI-15                      10.607        25.153       184.914
  ORI-17                       0.000         7.359        51.836
  ORI-19                       0.000        12.910         0.000
  2191                         0.000         0.000         0.000
  2501                         0.000         0.000         0.000
  2531                         1.845         0.419        72.432
  302                          0.000         0.000         0.000
  3075                         0.000         0.000         0.000
  3189                         0.644         0.609        16.631
  3725                         0.000         0.000         0.000
  3739                         0.000         0.000         0.000
  3800                         0.000         0.000         0.000
  3809                         9.946         0.254       140.101
  420                          0.000         0.000         0.000
  4312                         0.000         0.000         0.000
  4420                         7.727         4.673       182.545
  4489                         0.000         0.000         0.000
  4587                         0.000         0.000         0.000
  4674                         0.000         0.000         0.000
  5276                         0.000         0.000         0.000
  540                          0.000         0.000         0.000
  5587                         0.000         0.000         0.000
  5946                         0.000         0.000         0.000
  6356                         0.000         0.000         0.000
  6595                         0.016         0.006         0.403
  6610                        75.760        15.385       976.598
  6860                         0.000         0.000         0.000
  6894                        54.242        97.221       422.936
  7122                         0.000         0.000         0.000
  718                          0.000         0.000         0.000
  7207                         0.000         0.000         0.000
  7209                         0.000         0.000         0.000
  7376                         0.000         0.000         0.000
  7835                         0.000         0.000         0.000
  7893                         0.000         0.000         0.000
  7986                         0.000         0.000         0.000
  8031                         0.000         0.000         0.000
  8070                         0.000         0.000         0.000
  8071                         0.000         0.000         0.000
  CDT-229                      0.000         0.000         0.000
  CDT-231                      0.000         0.000         0.000
  CDT-239                      0.000         0.000         0.000
  CDT-61                       0.000         0.000         0.000
  WEIR-13                      0.000         0.000         0.000
  WEIR-15                      0.000         0.000         0.000
  WEIR-17                      0.000         0.000         0.000
  WEIR-19                      0.000         0.000         0.000
  WEIR-23                      0.033         0.005         1.062
  WEIR-25                      0.000         0.000         0.000
  WEIR-27                      0.000         0.000         0.000
  WEIR-31                      0.000         0.000         0.000
  WEIR-35                      0.000         0.000         0.000
  WEIR-37                      0.000         0.000         0.000
  WEIR-39                      0.000         0.000         0.000
  WEIR-41                      0.000         0.000         0.000
  

  Analysis begun on:  Wed Jun 24 15:07:25 2026
  Analysis ended on:  Wed Jun 24 15:09:28 2026
  Total elapsed time: 00:02:03