
  EPA STORM WATER MANAGEMENT MODEL - VERSION 5.2 (Build 5.2.4)
  ------------------------------------------------------------

  Scenario Run :  BASE 
  Scenario Run :  BASE 
  Subcatchment Width is 0.7factor applied to Slope Eqn - K = 1.7 expression. 
  WARNING 04: minimum elevation drop used for Conduit 1_110-OUT
  WARNING 03: negative offset ignored for Link 1_5008
  WARNING 03: negative offset ignored for Link 1_5058
  WARNING 03: negative offset ignored for Link 1_5202
  WARNING 03: negative offset ignored for Link 1_5208
  WARNING 03: negative offset ignored for Link 1_5209
  WARNING 03: negative offset ignored for Link 1_5210
  WARNING 03: negative offset ignored for Link 1_5211
  WARNING 03: negative offset ignored for Link 1_5213
  WARNING 03: negative offset ignored for Link 1_5216
  WARNING 03: negative offset ignored for Link 1_5216A
  WARNING 03: negative offset ignored for Link 1_5218
  WARNING 03: negative offset ignored for Link 1_5246
  WARNING 03: negative offset ignored for Link 1_5261
  WARNING 03: negative offset ignored for Link 1_5271
  WARNING 03: negative offset ignored for Link 1_5281
  WARNING 03: negative offset ignored for Link 1_5304
  WARNING 03: negative offset ignored for Link 1_5309
  WARNING 03: negative offset ignored for Link 1_5338
  WARNING 03: negative offset ignored for Link 1_5381
  WARNING 04: minimum elevation drop used for Conduit 1_5419
  WARNING 03: negative offset ignored for Link 1_5431
  WARNING 03: negative offset ignored for Link 1_5434
  WARNING 03: negative offset ignored for Link 1_5434A
  WARNING 03: negative offset ignored for Link 1_5435
  WARNING 03: negative offset ignored for Link 1_5436
  WARNING 03: negative offset ignored for Link 1_5437 (10)
  WARNING 03: negative offset ignored for Link 1_5437 (20)
  WARNING 04: minimum elevation drop used for Conduit 1_EXC_ST
  WARNING 04: minimum elevation drop used for Conduit 1_ 5049
  WARNING 04: minimum elevation drop used for Conduit EX_E-D
  WARNING 04: minimum elevation drop used for Conduit K1OUT
  WARNING 04: minimum elevation drop used for Conduit OW2
  WARNING 04: minimum elevation drop used for Conduit P1_WEIR1
  WARNING 04: minimum elevation drop used for Conduit PCOUT
  WARNING 02: maximum depth increased for Node 5201A
  WARNING 02: maximum depth increased for Node 5203
  WARNING 02: maximum depth increased for Node 5211
  WARNING 02: maximum depth increased for Node 5212
  WARNING 02: maximum depth increased for Node 5241
  WARNING 02: maximum depth increased for Node 5248
  WARNING 02: maximum depth increased for Node 5266
  WARNING 02: maximum depth increased for Node 5271
  WARNING 02: maximum depth increased for Node 5272
  WARNING 02: maximum depth increased for Node 5309
  WARNING 02: maximum depth increased for Node 5316
  WARNING 02: maximum depth increased for Node 5383
  WARNING 02: maximum depth increased for Node 5436
  WARNING 02: maximum depth increased for Node 5442
  WARNING 02: maximum depth increased for Node 5448
  WARNING 02: maximum depth increased for Node 6012A
  
  ****************
  Analysis Options
  ****************
  Flow Units ............... CFS
  Process Models:
    Rainfall/Runoff ........ YES
    RDII ................... NO
    Snowmelt ............... NO
    Groundwater ............ NO
    Flow Routing ........... YES
    Ponding Allowed ........ YES
    Water Quality .......... NO
  Infiltration Method ...... HORTON
  Flow Routing Method ...... DYNWAVE
  Surcharge Method ......... EXTRAN
  Starting Date ............ 09/01/2014 00:00:00
  Ending Date .............. 09/07/2014 00:00:00
  Antecedent Dry Days ...... 0.0
  Report Time Step ......... 00:00:30
  Wet Time Step ............ 00:00:30
  Dry Time Step ............ 00:01:00
  Routing Time Step ........ 10.00 sec
  Variable Time Step ....... YES
  Maximum Trials ........... 8
  Number of Threads ........ 1
  Head Tolerance ........... 0.010000 ft
  
  
  **************************        Volume         Depth
  Runoff Quantity Continuity     acre-feet        inches
  **************************     ---------       -------
  Total Precipitation ......        72.406         7.400
  Evaporation Loss .........         0.000         0.000
  Infiltration Loss ........        40.141         4.102
  Surface Runoff ...........        32.043         3.275
  Final Storage ............         0.250         0.026
  Continuity Error (%) .....        -0.039
  
  
  **************************        Volume        Volume
  Flow Routing Continuity        acre-feet      10^6 gal
  **************************     ---------     ---------
  Dry Weather Inflow .......         0.000         0.000
  Wet Weather Inflow .......        32.028        10.437
  Groundwater Inflow .......         0.000         0.000
  RDII Inflow ..............         0.000         0.000
  External Inflow ..........         0.000         0.000
  External Outflow .........        27.547         8.977
  Flooding Loss ............         0.179         0.058
  Evaporation Loss .........         0.000         0.000
  Exfiltration Loss ........         2.790         0.909
  Initial Stored Volume ....         0.000         0.000
  Final Stored Volume ......         0.274         0.089
  Continuity Error (%) .....         3.866
  
  
  *************************
  Highest Continuity Errors
  *************************
  Node 5372A (22.50%)
  Node 5210 (14.80%)
  Node 5100 (9.08%)
  Node 5224 (4.46%)
  Node 5046 (-4.04%)
  
  
  ***************************
  Time-Step Critical Elements
  ***************************
  Link DT_POND1 (27.51%)
  Link 1_5419 (10.82%)
  Link 1_5242 (3.71%)
  Link 1_5381 (1.44%)
  Link DRAINTILE (1.41%)
  
  
  ********************************
  Highest Flow Instability Indexes
  ********************************
  Link 1_5228 (1)
  Link 1_5009 (1)
  Link 1_5002 (1)
  Link P1_WEIR1 (1)
  
  
  *********************************
  Most Frequent Nonconverging Nodes
  *********************************
  Node 101_N_OUT (0.71%)
  Node 110_OUT (0.71%)
  Node 5400 (0.71%)
  Node COV_LA_N_OUT (0.71%)
  Node COV_LA_S_OUT (0.71%)
  
  
  *************************
  Routing Time Step Summary
  *************************
  Minimum Time Step           :     0.50 sec
  Average Time Step           :     7.37 sec
  Maximum Time Step           :    10.00 sec
  % of Time in Steady State   :     0.00
  Average Iterations per Step :     2.07
  % of Steps Not Converging   :     0.71
  Time Step Frequencies       :
     10.000 -  5.493 sec      :    65.77 %
      5.493 -  3.017 sec      :    29.91 %
      3.017 -  1.657 sec      :     3.22 %
      1.657 -  0.910 sec      :     0.80 %
      0.910 -  0.500 sec      :     0.29 %
  
  
  ***************************
  Subcatchment Runoff Summary
  ***************************
  
  ------------------------------------------------------------------------------------------------------------------------------
                            Total      Total      Total      Total     Imperv       Perv      Total       Total     Peak  Runoff
                           Precip      Runon       Evap      Infil     Runoff     Runoff     Runoff      Runoff   Runoff   Coeff
  Subcatchment                 in         in         in         in         in         in         in    10^6 gal      CFS
  ------------------------------------------------------------------------------------------------------------------------------
  SUB-10                     7.40       0.00       0.00       5.20       1.27       0.92       2.19        0.33    46.90   0.296
  SUB-110                    7.40       0.00       0.00       2.08       4.87       0.41       5.28        0.05     3.33   0.713
  SUB-114                    7.40       0.00       0.00       5.47       0.85       1.07       1.92        0.03     5.60   0.260
  SUB-116                    7.40       0.00       0.00       5.43       0.90       1.06       1.97        0.02     3.68   0.266
  SUB-118                    7.40       0.00       0.00       3.20       3.55       0.61       4.17        0.06     5.30   0.563
  SUB-124                    7.40       0.00       0.00       1.44       5.62       0.29       5.91        0.06     3.82   0.799
  SUB-132                    7.40       0.00       0.00       4.48       2.04       0.87       2.90        0.06     7.69   0.393
  SUB-136                    7.40       0.00       0.00       3.80       2.83       0.75       3.58        0.05     4.77   0.484
  SUB-138                    7.40       0.00       0.00       5.34       1.01       1.04       2.05        0.04     6.41   0.277
  SUB-142                    7.40       0.00       0.00       5.60       0.70       1.09       1.80        0.03     5.08   0.243
  SUB-156                    7.40       0.00       0.00       3.80       2.84       0.74       3.58        0.04     4.00   0.484
  SUB-158                    7.40       0.00       0.00       3.97       2.63       0.78       3.41        0.02     2.43   0.461
  SUB-16                     7.40       0.00       0.00       3.51       3.21       0.65       3.85        1.06    98.07   0.521
  SUB-160                    7.40       0.00       0.00       2.50       4.37       0.50       4.87        0.01     0.84   0.658
  SUB-162                    7.40       0.00       0.00       4.11       2.46       0.81       3.27        0.01     1.19   0.442
  SUB-164                    7.40       0.00       0.00       3.74       2.91       0.72       3.64        0.10     9.79   0.491
  SUB-176                    7.40       0.00       0.00       5.25       1.16       0.99       2.14        0.21    31.64   0.290
  SUB-180                    7.40       0.00       0.00       4.75       1.74       0.90       2.64        0.17    21.96   0.357
  SUB-186                    7.40       0.00       0.00       3.08       3.67       0.61       4.28        0.02     1.79   0.579
  SUB-188                    7.40       0.00       0.00       5.10       1.31       0.98       2.29        0.09    13.13   0.310
  SUB-190                    7.40       0.00       0.00       3.67       2.98       0.72       3.70        0.04     4.05   0.501
  SUB-196                    7.40       0.00       0.00       4.72       1.75       0.91       2.66        0.15    18.93   0.360
  SUB-198                    7.40       0.00       0.00       5.56       0.78       1.06       1.83        0.15    25.80   0.248
  SUB-202                    7.40       0.00       0.00       5.67       0.66       1.06       1.72        0.17    32.31   0.233
  SUB-204                    7.40       0.00       0.00       2.18       4.74       0.43       5.18        0.05     3.62   0.699
  SUB-210                    7.40       0.00       0.00       4.10       2.49       0.79       3.28        0.14    14.68   0.443
  SUB-212                    7.40       0.00       0.00       4.93       1.52       0.94       2.46        0.13    17.07   0.332
  SUB-214                    7.40       0.00       0.00       2.08       4.86       0.41       5.27        0.06     4.31   0.712
  SUB-216                    7.40       0.00       0.00       6.11       0.12       1.17       1.29        0.04     9.40   0.175
  SUB-218                    7.40       0.00       0.00       3.76       2.91       0.70       3.61        0.19    18.61   0.488
  SUB-22                     7.40       0.00       0.00       1.27       5.82       0.25       6.07        0.05     3.16   0.820
  SUB-24                     7.40       0.00       0.00       1.62       5.42       0.31       5.73        0.23    15.87   0.774
  SUB-26                     7.40       0.00       0.00       4.82       1.68       0.89       2.57        0.62    79.67   0.347
  SUB-264                    7.40       0.00       0.00       0.62       6.60       0.12       6.72        0.04     2.72   0.908
  SUB-274                    7.40       0.00       0.00       2.57       4.29       0.51       4.80        0.01     1.04   0.648
  SUB-28                     7.40       0.00       0.00       4.31       2.25       0.82       3.07        0.32    36.03   0.414
  SUB-30                     7.40       0.00       0.00       3.45       3.24       0.68       3.92        0.10     9.46   0.529
  SUB-312                    7.40       0.00       0.00       6.21       0.00       1.19       1.19        0.03     7.20   0.161
  SUB-314                    7.40       0.00       0.00       2.87       3.93       0.57       4.50        0.04     3.02   0.608
  SUB-316                    7.40       0.00       0.00       2.24       4.68       0.45       5.12        0.04     3.21   0.692
  SUB-318                    7.40       0.00       0.00       2.49       4.37       0.50       4.87        0.03     2.66   0.658
  SUB-32                     7.40       0.00       0.00       1.64       5.38       0.33       5.71        0.04     2.90   0.771
  SUB-320                    7.40       0.00       0.00       3.91       2.70       0.77       3.47        0.05     4.73   0.469
  SUB-322                    7.40       0.00       0.00       4.33       2.20       0.84       3.05        0.06     6.79   0.412
  SUB-324                    7.40       0.00       0.00       5.60       0.74       1.06       1.79        0.10    18.37   0.242
  SUB-328                    7.40       0.00       0.00       5.36       1.03       1.00       2.03        0.20    32.74   0.274
  SUB-330                    7.40       0.00       0.00       0.62       6.60       0.12       6.72        0.02     1.43   0.908
  SUB-332                    7.40       0.00       0.00       3.57       3.10       0.70       3.81        0.03     2.55   0.514
  SUB-334                    7.40       0.00       0.00       4.97       1.47       0.95       2.41        0.17    23.91   0.326
  SUB-336                    7.40       0.00       0.00       2.21       4.71       0.44       5.14        0.03     2.20   0.695
  SUB-338                    7.40       0.00       0.00       0.66       6.55       0.13       6.68        0.01     0.86   0.903
  SUB-34                     7.40       0.00       0.00       3.90       2.71       0.77       3.48        0.05     5.28   0.470
  SUB-340                    7.40       0.00       0.00       1.00       6.15       0.20       6.35        0.01     0.72   0.858
  SUB-342                    7.40       0.00       0.00       1.02       6.12       0.20       6.32        0.02     1.07   0.854
  SUB-344                    7.40       0.00       0.00       2.26       4.65       0.45       5.10        0.02     1.82   0.689
  SUB-346                    7.40       0.00       0.00       0.64       6.57       0.13       6.70        0.01     0.68   0.906
  SUB-348                    7.40       0.00       0.00       4.07       2.52       0.79       3.31        0.02     2.26   0.448
  SUB-350                    7.40       0.00       0.00       5.64       0.67       1.09       1.76        0.01     2.41   0.237
  SUB-352                    7.40       0.00       0.00       2.97       3.81       0.58       4.39        0.04     3.06   0.594
  SUB-354                    7.40       0.00       0.00       0.33       6.94       0.07       7.01        0.01     0.57   0.947
  SUB-356                    7.40       0.00       0.00       1.03       6.11       0.21       6.32        0.01     0.79   0.853
  SUB-358                    7.40       0.00       0.00       0.14       7.16       0.03       7.19        0.01     0.78   0.972
  SUB-36                     7.40       0.00       0.00       4.17       2.40       0.80       3.21        0.03     3.81   0.433
  SUB-360                    7.40       0.00       0.00       5.07       1.32       0.99       2.32        0.01     1.91   0.313
  SUB-362                    7.40       0.00       0.00       5.10       1.29       1.00       2.29        0.01     1.10   0.310
  SUB-364                    7.40       0.00       0.00       0.00       7.33       0.00       7.33        0.02     1.25   0.990
  SUB-366                    7.40       0.00       0.00       0.69       6.51       0.14       6.65        0.02     1.33   0.898
  SUB-368                    7.40       0.00       0.00       0.19       7.10       0.04       7.14        0.01     0.76   0.965
  SUB-370                    7.40       0.00       0.00       0.46       6.78       0.09       6.88        0.02     0.92   0.929
  SUB-372                    7.40       0.00       0.00       1.75       5.25       0.35       5.60        0.03     2.23   0.757
  SUB-374                    7.40       0.00       0.00       1.22       5.88       0.24       6.12        0.04     2.86   0.828
  SUB-376                    7.40       0.00       0.00       0.66       6.55       0.13       6.68        0.02     1.37   0.902
  SUB-378                    7.40       0.00       0.00       1.67       5.35       0.33       5.68        0.02     1.36   0.768
  SUB-38                     7.40       0.00       0.00       5.63       0.71       1.05       1.76        0.07    12.67   0.238
  SUB-380                    7.40       0.00       0.00       1.28       5.81       0.26       6.07        0.02     1.09   0.820
  SUB-382                    7.40       0.00       0.00       1.49       5.57       0.30       5.86        0.01     0.66   0.792
  SUB-384                    7.40       0.00       0.00       1.76       5.24       0.35       5.59        0.03     2.25   0.755
  SUB-386                    7.40       0.00       0.00       0.89       6.28       0.18       6.45        0.03     2.20   0.872
  SUB-388                    7.40       0.00       0.00       0.28       6.99       0.06       7.05        0.01     0.77   0.953
  SUB-390                    7.40       0.00       0.00       0.68       6.52       0.14       6.66        0.04     2.36   0.900
  SUB-392                    7.40       0.00       0.00       0.00       7.33       0.00       7.33        0.01     0.74   0.991
  SUB-394                    7.40       0.00       0.00       2.50       4.37       0.49       4.86        0.03     2.27   0.657
  SUB-396                    7.40       0.00       0.00       1.72       5.28       0.34       5.63        0.01     1.01   0.760
  SUB-398                    7.40       0.00       0.00       0.28       6.99       0.06       7.05        0.01     0.49   0.953
  SUB-40                     7.40       0.00       0.00       0.75       6.44       0.15       6.59        0.20    12.59   0.890
  SUB-400                    7.40       0.00       0.00       0.78       6.40       0.16       6.55        0.03     1.88   0.886
  SUB-402                    7.40       0.00       0.00       1.20       5.90       0.24       6.14        0.03     1.97   0.830
  SUB-404                    7.40       0.00       0.00       1.06       6.07       0.21       6.28        0.04     2.33   0.849
  SUB-406                    7.40       0.00       0.00       0.91       6.25       0.18       6.44        0.02     1.52   0.870
  SUB-408                    7.40       0.00       0.00       1.34       5.74       0.27       6.01        0.02     1.14   0.812
  SUB-410                    7.40       0.00       0.00       0.72       6.47       0.14       6.62        0.02     1.54   0.894
  SUB-412                    7.40       0.00       0.00       1.07       6.06       0.21       6.27        0.01     0.87   0.848
  SUB-414                    7.40       0.00       0.00       1.41       5.66       0.28       5.94        0.02     1.22   0.803
  SUB-416                    7.40       0.00       0.00       0.88       6.28       0.18       6.46        0.02     1.17   0.873
  SUB-418                    7.40       0.00       0.00       1.00       6.14       0.20       6.34        0.03     2.16   0.857
  SUB-42                     7.40       0.00       0.00       2.96       3.83       0.58       4.41        0.07     5.67   0.595
  SUB-420                    7.40       0.00       0.00       1.48       5.57       0.30       5.87        0.04     3.01   0.793
  SUB-422                    7.40       0.00       0.00       1.52       5.52       0.30       5.83        0.02     1.24   0.787
  SUB-424                    7.40       0.00       0.00       1.09       6.03       0.22       6.25        0.02     1.42   0.845
  SUB-426                    7.40       0.00       0.00       2.52       4.34       0.50       4.84        0.03     2.07   0.654
  SUB-428                    7.40       0.00       0.00       1.69       5.32       0.34       5.66        0.02     1.20   0.764
  SUB-430                    7.40       0.00       0.00       2.67       4.17       0.53       4.70        0.03     2.40   0.635
  SUB-432                    7.40       0.00       0.00       0.00       7.33       0.00       7.33        0.01     0.37   0.991
  SUB-434                    7.40       0.00       0.00       1.67       5.35       0.33       5.68        0.03     2.01   0.768
  SUB-436                    7.40       0.00       0.00       0.60       6.61       0.12       6.73        0.03     1.77   0.910
  SUB-438                    7.40       0.00       0.00       0.95       6.20       0.19       6.39        0.05     3.13   0.864
  SUB-44                     7.40       0.00       0.00       3.93       2.68       0.77       3.45        0.03     2.78   0.466
  SUB-440                    7.40       0.00       0.00       1.27       5.82       0.25       6.08        0.03     2.27   0.821
  SUB-442                    7.40       0.00       0.00       0.74       6.45       0.15       6.60        0.01     0.71   0.892
  SUB-444                    7.40       0.00       0.00       2.12       4.82       0.42       5.24        0.04     2.73   0.708
  SUB-446                    7.40       0.00       0.00       2.39       4.50       0.47       4.97        0.04     2.75   0.671
  SUB-448                    7.40       0.00       0.00       3.04       3.72       0.60       4.33        0.01     0.53   0.585
  SUB-450                    7.40       0.00       0.00       2.33       4.57       0.46       5.03        0.02     1.76   0.680
  SUB-452                    7.40       0.00       0.00       0.72       6.47       0.14       6.62        0.06     3.61   0.894
  SUB-454                    7.40       0.00       0.00       3.23       3.51       0.64       4.14        0.04     3.59   0.560
  SUB-456                    7.40       0.00       0.00       0.73       6.46       0.15       6.60        0.02     1.55   0.892
  SUB-458                    7.40       0.00       0.00       2.24       4.67       0.44       5.12        0.05     3.47   0.691
  SUB-46                     7.40       0.00       0.00       2.57       4.29       0.51       4.80        0.02     1.72   0.648
  SUB-460                    7.40       0.00       0.00       0.65       6.55       0.13       6.68        0.04     2.48   0.903
  SUB-462                    7.40       0.00       0.00       0.85       6.32       0.17       6.49        0.02     1.28   0.877
  SUB-464                    7.40       0.00       0.00       3.42       3.28       0.67       3.95        0.03     2.87   0.534
  SUB-466                    7.40       0.00       0.00       4.03       2.56       0.79       3.35        0.03     3.41   0.453
  SUB-468                    7.40       0.00       0.00       2.14       4.79       0.43       5.22        0.03     1.86   0.705
  SUB-470                    7.40       0.00       0.00       1.56       5.48       0.31       5.79        0.02     1.55   0.782
  SUB-472                    7.40       0.00       0.00       0.40       6.85       0.08       6.93        0.02     1.31   0.937
  SUB-474                    7.40       0.00       0.00       0.48       6.76       0.10       6.85        0.07     4.40   0.926
  SUB-476                    7.40       0.00       0.00       1.18       5.93       0.24       6.16        0.05     3.20   0.833
  SUB-478                    7.40       0.00       0.00       0.34       6.92       0.07       6.99        0.06     3.35   0.945
  SUB-48                     7.40       0.00       0.00       6.22       0.00       1.18       1.18        0.16    42.19   0.159
  SUB-480                    7.40       0.00       0.00       1.77       5.23       0.35       5.58        0.04     2.63   0.754
  SUB-482                    7.40       0.00       0.00       2.56       4.29       0.50       4.79        0.06     4.69   0.648
  SUB-484                    7.40       0.00       0.00       0.09       7.22       0.02       7.23        0.04     2.53   0.978
  SUB-486                    7.40       0.00       0.00       1.15       5.96       0.23       6.19        0.05     3.36   0.836
  SUB-488                    7.40       0.00       0.00       0.96       6.18       0.19       6.38        0.04     2.51   0.862
  SUB-490                    7.40       0.00       0.00       2.06       4.89       0.41       5.30        0.03     2.46   0.716
  SUB-492                    7.40       0.00       0.00       1.23       5.87       0.24       6.12        0.03     1.70   0.827
  SUB-494                    7.40       0.00       0.00       3.50       3.18       0.68       3.87        0.08     7.05   0.523
  SUB-496                    7.40       0.00       0.00       2.32       4.58       0.46       5.04        0.04     2.72   0.681
  SUB-498                    7.40       0.00       0.00       3.73       2.91       0.73       3.64        0.05     5.36   0.492
  SUB-50                     7.40       0.00       0.00       3.25       3.47       0.65       4.12        0.08     6.81   0.557
  SUB-500                    7.40       0.00       0.00       2.07       4.87       0.41       5.28        0.03     2.13   0.714
  SUB-502                    7.40       0.00       0.00       2.32       4.58       0.46       5.04        0.04     2.85   0.681
  SUB-504                    7.40       0.00       0.00       0.72       6.48       0.14       6.62        0.02     1.48   0.895
  SUB-506                    7.40       0.00       0.00       3.59       3.07       0.71       3.78        0.03     3.23   0.511
  SUB-508                    7.40       0.00       0.00       1.04       6.09       0.21       6.30        0.05     3.40   0.851
  SUB-510                    7.40       0.00       0.00       1.04       6.09       0.21       6.30        0.03     2.09   0.851
  SUB-512                    7.40       0.00       0.00       6.18       0.00       1.22       1.22        0.00     0.85   0.165
  SUB-514                    7.40       0.00       0.00       0.50       6.74       0.10       6.84        0.02     0.98   0.924
  SUB-516                    7.40       0.00       0.00       0.79       6.39       0.16       6.55        0.06     4.02   0.885
  SUB-518                    7.40       0.00       0.00       1.43       5.63       0.28       5.92        0.06     4.00   0.800
  SUB-52                     7.40       0.00       0.00       4.69       1.77       0.92       2.69        0.09    11.12   0.364
  SUB-520                    7.40       0.00       0.00       0.62       6.59       0.12       6.71        0.04     2.26   0.907
  SUB-522                    7.40       0.00       0.00       1.17       5.94       0.23       6.18        0.04     2.45   0.835
  SUB-524                    7.40       0.00       0.00       2.31       4.59       0.46       5.05        0.07     5.46   0.682
  SUB-526                    7.40       0.00       0.00       0.39       6.86       0.08       6.94        0.03     1.98   0.938
  SUB-528                    7.40       0.00       0.00       0.00       7.33       0.00       7.33        0.02     1.12   0.990
  SUB-530                    7.40       0.00       0.00       6.20       0.00       1.20       1.20        0.01     3.13   0.162
  SUB-532                    7.40       0.00       0.00       5.56       0.75       1.08       1.83        0.03     4.59   0.248
  SUB-534                    7.40       0.00       0.00       6.01       0.23       1.17       1.39        0.03     7.05   0.189
  SUB-536                    7.40       0.00       0.00       6.20       0.00       1.21       1.21        0.01     2.25   0.163
  SUB-538                    7.40       0.00       0.00       6.21       0.00       1.19       1.19        0.01     3.71   0.161
  SUB-540                    7.40       0.00       0.00       5.03       1.38       0.97       2.35        0.03     4.87   0.318
  SUB-542                    7.40       0.00       0.00       4.45       2.06       0.87       2.93        0.04     4.59   0.396
  SUB-66                     7.40       0.00       0.00       2.59       4.26       0.51       4.77        0.13    10.35   0.645
  SUB-68                     7.40       0.00       0.00       2.80       4.01       0.56       4.57        0.13    10.66   0.617
  SUB-70                     7.40       0.00       0.00       2.36       4.54       0.47       5.00        0.05     4.13   0.676
  SUB-72                     7.40       0.00       0.00       4.39       2.18       0.81       2.99        0.13    15.24   0.404
  SUB-74                     7.40       0.00       0.00       3.60       3.08       0.69       3.77        0.09     9.04   0.510
  SUB-76                     7.40       0.00       0.00       4.00       2.61       0.77       3.38        0.07     7.42   0.457
  SUB-78                     7.40       0.00       0.00       5.21       1.22       0.96       2.18        0.07    10.87   0.295
  SUB-80                     7.40       0.00       0.00       1.41       5.65       0.28       5.93        0.03     1.68   0.802
  SUB-84                     7.40       0.00       0.00       4.63       1.85       0.90       2.76        0.02     2.91   0.373
  SUB-86                     7.40       0.00       0.00       3.91       2.71       0.76       3.47        0.03     3.03   0.468
  SUB-88                     7.40       0.00       0.00       3.51       3.18       0.68       3.86        0.04     3.35   0.521
  SUB-90                     7.40       0.00       0.00       5.37       1.06       0.96       2.02        0.07    10.99   0.273
  
  
  ******************
  Node Depth Summary
  ******************
  
  ---------------------------------------------------------------------------------
                                 Average  Maximum  Maximum  Time of Max    Reported
                                   Depth    Depth      HGL   Occurrence   Max Depth
  Node                 Type         Feet     Feet     Feet  days hr:min        Feet
  ---------------------------------------------------------------------------------
  101_N                JUNCTION     0.01     0.04   904.04     0  13:17        0.04
  110                  JUNCTION     0.03     0.63   916.63     0  11:55        0.63
  5001                 JUNCTION     0.48     4.62   885.80     0  12:14        4.61
  5002                 JUNCTION     0.14     3.28   885.81     0  12:11        3.27
  5003_O               JUNCTION     0.05     0.74   883.24     0  11:57        0.74
  5004                 JUNCTION     0.07     3.35   886.71     0  11:57        3.35
  5005                 JUNCTION     0.04     1.13   892.73     0  11:57        1.09
  5006                 JUNCTION     0.03     5.03   904.50     0  11:56        3.05
  5009                 JUNCTION     0.26     4.31   886.27     0  12:00        4.31
  5010                 JUNCTION     0.03     4.00   904.98     0  11:56        1.91
  5032                 JUNCTION     0.47     4.57   885.77     0  12:20        4.54
  5034                 JUNCTION     0.04     2.33   885.78     0  12:19        2.29
  5035                 JUNCTION     0.00     0.00   890.59     0  00:00        0.00
  5035A                JUNCTION     0.00     0.00   893.98     0  00:00        0.00
  5037                 JUNCTION     0.19     3.01   883.11     0  12:15        3.00
  5046                 JUNCTION     0.14     5.90   924.64     0  11:56        5.24
  5047                 JUNCTION     0.11     6.42   925.20     0  11:56        5.21
  5048                 JUNCTION     0.04     6.26   925.12     0  11:56        5.14
  5051                 JUNCTION     1.18     5.83   886.19     0  12:11        5.80
  5052                 JUNCTION     0.12     5.07   889.52     0  11:59        4.47
  5053                 JUNCTION     0.13     5.72   892.47     0  11:59        5.04
  5053A                JUNCTION     0.10     5.11   893.41     0  11:59        3.99
  5054                 JUNCTION     0.14     4.98   896.00     0  12:04        4.98
  5055                 JUNCTION     0.06     1.54   907.15     0  12:00        1.54
  5056                 JUNCTION     0.10     4.99   911.75     0  12:00        4.98
  5057                 JUNCTION     0.10     5.92   916.63     0  12:00        5.91
  5058                 JUNCTION     0.12     8.06   919.42     0  12:00        8.06
  5059                 JUNCTION     0.15    11.65   924.80     0  12:00       11.65
  5060                 JUNCTION     0.15    14.53   928.70     0  12:00       14.48
  5061                 JUNCTION     0.13    13.76   931.49     0  12:00       13.76
  5062                 JUNCTION     0.13    14.19   935.26     0  12:01       14.18
  5063                 JUNCTION     0.05     5.12   938.32     0  12:00        4.83
  5064                 JUNCTION     0.04     4.15   939.43     0  12:00        4.10
  5065                 JUNCTION     0.04     4.37   940.32     0  11:59        4.36
  5066                 JUNCTION     0.04     4.64   940.84     0  11:54        4.55
  5070                 JUNCTION     0.04     3.17   889.76     0  11:59        2.33
  5071                 JUNCTION     0.03     0.83   896.72     0  11:55        0.83
  5072                 JUNCTION     0.03     0.97   911.77     0  12:00        0.96
  5073                 JUNCTION     0.01     3.55   916.70     0  11:54        3.49
  5073A                JUNCTION     0.01     3.70   916.71     0  11:54        3.64
  5074                 JUNCTION     0.09    12.17   928.92     0  12:00       12.10
  5075                 JUNCTION     0.09    13.57   928.92     0  12:00       13.50
  5077                 JUNCTION     0.09    12.49   931.48     0  12:00       12.45
  5079                 JUNCTION     0.02     0.48   908.48     0  11:57        0.48
  5080                 JUNCTION     0.02     0.52   908.63     0  11:56        0.52
  5081                 JUNCTION     0.04     3.92   938.20     0  12:00        3.91
  5082                 JUNCTION     0.04     3.69   938.28     0  12:00        3.58
  5083                 JUNCTION     0.02     3.65   938.28     0  12:00        3.64
  5084                 JUNCTION     0.02     3.63   938.29     0  12:00        3.55
  5090                 JUNCTION     0.08    12.29   935.39     0  12:00       12.25
  5091                 JUNCTION     0.09    12.14   935.42     0  12:01       12.12
  5092                 JUNCTION     0.10    12.12   935.46     0  12:01       12.12
  5100                 JUNCTION     0.00     0.14   938.11     0  12:00        0.14
  5101                 JUNCTION     0.00     0.00   938.32     0  00:00        0.00
  5104                 JUNCTION     0.04     4.65   916.66     0  12:00        4.64
  5105                 JUNCTION     0.04     4.39   916.71     0  12:00        4.38
  5108                 JUNCTION     0.03     4.82   894.72     0  11:59        2.61
  5109                 JUNCTION     0.03     3.80   894.11     0  11:59        2.35
  5110                 JUNCTION     0.03     3.75   894.29     0  11:59        1.82
  5200                 JUNCTION     1.28     3.13   898.54     0  15:42        3.13
  5201A                JUNCTION     0.21     4.69   902.32     0  12:01        4.69
  5202                 JUNCTION     0.14     5.30   904.56     0  11:59        5.28
  5203                 JUNCTION     0.15     4.33   905.27     0  12:00        4.27
  5204                 JUNCTION     0.13     3.12   907.75     0  12:00        3.11
  5205                 JUNCTION     0.14     3.30   911.15     0  12:00        3.30
  5206                 JUNCTION     0.15     3.73   914.40     0  12:00        3.70
  5207                 JUNCTION     0.18     3.00   917.52     0  12:00        3.00
  5208                 JUNCTION     0.18     3.00   917.58     0  12:00        3.00
  5209                 JUNCTION     0.16     3.21   918.08     0  12:03        3.21
  5211                 JUNCTION     0.12     4.40   919.60     0  12:00        4.40
  5211A                JUNCTION     0.00     0.00   920.00     0  00:00        0.00
  5212                 JUNCTION     0.15     4.74   920.65     0  12:00        4.72
  5212A                JUNCTION     0.00     0.00   921.77     0  00:00        0.00
  5213                 JUNCTION     0.15     5.67   921.69     0  11:59        5.65
  5213A                JUNCTION     0.08     5.38   924.00     0  12:00        5.36
  5214                 JUNCTION     0.07     6.67   928.36     0  11:56        4.65
  5215                 JUNCTION     0.07     5.49   931.71     0  11:56        5.22
  5216                 JUNCTION     0.09     6.73   934.27     0  12:00        6.71
  5216A                JUNCTION     0.06     6.10   934.92     0  12:00        6.10
  5217                 JUNCTION     0.07     6.07   935.45     0  12:00        6.05
  5218                 JUNCTION     0.09     7.71   938.28     0  12:00        7.68
  5219                 JUNCTION     0.04     5.19   938.81     0  12:00        5.17
  5220                 JUNCTION     0.04     6.06   934.38     0  12:00        6.04
  5221                 JUNCTION     0.03     4.62   931.58     0  11:56        4.53
  5222                 JUNCTION     0.04     5.62   928.50     0  11:56        3.49
  5223                 JUNCTION     0.04     2.95   920.67     0  12:00        2.94
  5225                 JUNCTION     0.02     3.19   920.67     0  12:00        3.15
  5226                 JUNCTION     0.03     1.33   925.87     0  11:57        1.33
  5227                 JUNCTION     0.06     8.59   934.60     0  11:57        8.55
  5229                 JUNCTION     0.01     0.48   923.73     0  11:55        0.48
  5230                 JUNCTION     0.06     4.02   905.26     0  12:00        3.96
  5231                 JUNCTION     0.26     3.40   900.71     0  12:02        3.38
  5232                 JUNCTION     0.06     3.65   920.05     0  11:56        3.58
  5233                 JUNCTION     0.02     1.01   920.01     0  11:56        1.01
  5235                 JUNCTION     0.01     0.31   924.42     0  11:55        0.31
  5241                 JUNCTION     2.23     6.28   898.37     0  16:08        6.28
  5241A                JUNCTION     0.00     0.00   901.00     0  00:00        0.00
  5242                 JUNCTION     2.22     6.27   898.37     0  16:08        6.27
  5242A                JUNCTION     0.00     0.00   900.60     0  00:00        0.00
  5243                 JUNCTION     2.10     6.07   898.37     0  16:08        6.07
  5244                 JUNCTION     0.03     0.81   899.66     0  11:57        0.81
  5245                 JUNCTION     0.03     1.39   901.97     0  11:57        1.39
  5246                 JUNCTION     0.11     3.76   918.78     0  12:05        3.68
  5246A                JUNCTION     0.11     3.78   918.83     0  12:05        3.75
  5248                 JUNCTION     0.29     4.04   919.18     0  12:05        3.97
  5260                 JUNCTION     0.06     6.72   942.23     0  12:00        6.67
  5261                 JUNCTION     0.06     7.73   943.76     0  12:00        7.71
  5262                 JUNCTION     0.06     7.89   944.04     0  12:00        7.87
  5263                 JUNCTION     0.06     7.93   944.21     0  12:00        7.93
  5265                 JUNCTION     0.07     1.87   905.09     0  12:00        1.86
  5266                 JUNCTION     0.07     1.12   904.43     0  12:04        1.12
  5267                 JUNCTION     0.00     0.00   909.10     0  00:00        0.00
  5270                 JUNCTION     0.33     1.03   930.34     0  14:43        1.03
  5271                 JUNCTION     0.27     0.88   930.34     0  14:43        0.88
  5272                 JUNCTION     0.03     0.35   930.70     0  12:03        0.35
  5272A                JUNCTION     0.00     0.00   937.50     0  00:00        0.00
  5275                 JUNCTION     0.02     5.34   935.00     0  12:00        5.34
  5277                 JUNCTION     0.06     8.48   945.01     0  12:00        8.45
  5278                 JUNCTION     0.06     8.78   945.33     0  12:00        8.76
  5280                 JUNCTION     0.03     3.98   921.68     0  12:00        3.91
  5281                 JUNCTION     0.02     4.51   922.69     0  11:54        3.45
  5283                 JUNCTION     0.04     5.53   935.55     0  12:00        5.53
  5284                 JUNCTION     0.04     5.31   935.59     0  12:00        5.30
  5285                 JUNCTION     0.05     5.50   935.91     0  12:00        5.47
  5290                 JUNCTION     0.01     4.59   944.28     0  12:00        4.59
  5291                 JUNCTION     0.01     4.41   944.36     0  12:00        4.39
  5297                 JUNCTION   268.31   310.16  1230.03     6  00:00      310.16
  5303                 JUNCTION     0.07     2.35   926.03     0  11:55        2.26
  5304                 JUNCTION     0.08     2.78   926.55     0  11:55        2.78
  5305                 JUNCTION     0.07     4.91   928.83     0  11:55        4.88
  5305A                JUNCTION     0.06     5.60   929.69     0  11:55        5.57
  5309                 JUNCTION     0.16     4.25   922.23     0  12:00        4.25
  5314                 JUNCTION     2.43     3.43   915.88     0  12:06        3.43
  5315                 JUNCTION     1.97     3.82   916.74     0  12:04        3.79
  5316                 JUNCTION     0.55     3.62   918.00     0  12:04        3.62
  5317                 JUNCTION     0.06     4.75   921.29     0  12:00        2.99
  5317A                JUNCTION     0.00     0.00   921.28     0  12:00        0.00
  5318                 JUNCTION     0.06     3.68   922.07     0  12:00        3.66
  5318A                JUNCTION     0.06     4.97   925.37     0  12:00        4.95
  5319                 JUNCTION     0.07     6.05   927.29     0  12:00        6.03
  5320                 JUNCTION     0.07     6.24   928.07     0  12:00        6.22
  5321                 JUNCTION     0.05     5.68   928.28     0  12:00        5.68
  5322                 JUNCTION     0.04     5.02   928.53     0  12:00        5.00
  5323                 JUNCTION     0.04     4.09   928.96     0  11:56        3.68
  5325                 JUNCTION     0.17     2.09   913.48     0  12:11        2.08
  5326                 JUNCTION     0.02     0.49   915.62     0  11:55        0.49
  5326A                JUNCTION     0.00     0.00   916.00     0  00:00        0.00
  5330                 JUNCTION     0.00     1.28   919.63     0  12:02        1.28
  5331                 JUNCTION     0.00     0.00   919.78     0  00:00        0.00
  5337                 JUNCTION     0.10     2.83   920.76     0  11:56        2.83
  5338                 JUNCTION     0.12     3.33   921.28     0  11:56        3.30
  5339                 JUNCTION     0.12     3.77   921.76     0  11:59        3.71
  5340                 JUNCTION     0.04     2.85   921.80     0  11:55        2.80
  5341                 JUNCTION     0.03     4.53   923.61     0  11:55        2.64
  5345                 JUNCTION     0.04     5.47   928.31     0  12:00        5.41
  5346                 JUNCTION     0.04     5.40   928.08     0  12:00        5.39
  5350                 JUNCTION     0.02     0.98   922.06     0  12:00        0.97
  5360                 JUNCTION     0.04     5.08   927.32     0  12:00        5.08
  5361                 JUNCTION     0.02     3.43   925.38     0  12:00        3.42
  5370                 JUNCTION     0.51     2.52   908.21     0  12:57        2.51
  5371                 JUNCTION     0.43     2.22   908.22     0  13:13        2.22
  5371A                JUNCTION     0.25     2.53   909.36     0  12:48        2.53
  5371B                JUNCTION     0.00     0.00   916.00     0  00:00        0.00
  5371C                JUNCTION     0.00     0.00   912.60     0  00:00        0.00
  5372                 JUNCTION     0.07     1.75   913.25     0  12:14        1.75
  5372A                JUNCTION     2.32     4.18   913.25     0  12:12        4.18
  5373                 JUNCTION     0.29     3.85   915.16     0  11:57        3.84
  5374                 JUNCTION     0.06     1.63   920.38     0  11:56        1.63
  5375                 JUNCTION     0.07     2.04   924.70     0  11:56        2.04
  5376                 JUNCTION     0.03     1.86   924.73     0  11:56        1.86
  5381                 JUNCTION     0.36     1.99   908.19     0  14:37        1.99
  5382                 JUNCTION     0.34     1.94   908.19     0  14:36        1.94
  5382A                JUNCTION     0.00     0.00   911.90     0  00:00        0.00
  5383                 JUNCTION     0.29     1.74   908.19     0  14:35        1.74
  5383A                JUNCTION     0.00     0.00   910.80     0  00:00        0.00
  5384                 JUNCTION     0.11     0.92   908.20     0  14:34        0.92
  5401                 JUNCTION     0.05     4.26   934.36     0  11:55        3.50
  5402                 JUNCTION     0.03     1.08   934.91     0  11:57        1.07
  5403                 JUNCTION     0.05     3.15   937.38     0  11:57        3.15
  5404                 JUNCTION     0.05     4.52   939.12     0  11:57        4.51
  5410                 JUNCTION     1.86    21.18   914.18     0  12:00       21.17
  5410A                JUNCTION     0.00     0.00   894.00     0  13:08        0.00
  5411                 JUNCTION     0.79    19.76   914.06     0  12:00       19.73
  5412                 JUNCTION     0.75    19.62   914.03     0  12:00       19.55
  5413                 JUNCTION     0.18    14.75   917.40     0  12:00       14.74
  5414                 JUNCTION     0.17    11.71   920.02     0  12:00       11.71
  5415                 JUNCTION     0.20     9.09   920.91     0  12:00        9.07
  5416                 JUNCTION     0.17     7.94   922.30     0  12:00        7.93
  5417                 JUNCTION     0.17     6.95   922.31     0  12:00        6.92
  5418                 JUNCTION     0.17     6.86   922.32     0  12:00        6.84
  5419A                JUNCTION     0.24     7.04   922.54     0  11:52        6.81
  5420                 JUNCTION     0.04     5.80   923.31     0  12:00        5.79
  5420A                JUNCTION     0.02     3.74   924.29     0  11:54        3.25
  5421                 JUNCTION     0.09    11.07   921.32     0  12:00       11.04
  5423                 JUNCTION     0.07     4.30   900.85     0  12:00        4.30
  5424                 JUNCTION     0.08     9.61   908.94     0  12:00        9.59
  5425                 JUNCTION     0.06     6.87   912.22     0  12:00        6.84
  5426                 JUNCTION     0.05     6.69   909.24     0  12:00        6.69
  5428                 JUNCTION     0.46     8.82   926.82     0  12:00        8.78
  5428A                JUNCTION     0.30     8.31   926.89     0  12:00        8.28
  5429                 JUNCTION     0.11    12.61   933.04     0  12:01       12.60
  5430                 JUNCTION     0.13    15.07   937.76     0  12:00       15.07
  5431                 JUNCTION     0.18    23.62   946.67     0  12:00       23.59
  5432                 JUNCTION     0.00     0.05   920.17     0  12:04        0.05
  5433                 JUNCTION     0.36     8.87   930.02     0  12:04        8.87
  5434                 JUNCTION     0.17     7.49   930.76     0  12:04        7.49
  5435                 JUNCTION     0.15     6.71   930.79     0  12:03        6.71
  5436                 JUNCTION     0.14     5.95   930.81     0  12:03        5.95
  5436A                JUNCTION     0.11     7.66   933.66     0  11:57        7.64
  5437                 JUNCTION     0.05     9.86   920.07     0  12:00        9.84
  5438                 JUNCTION     0.05    12.51   937.88     0  12:00       12.50
  5440                 JUNCTION     4.06     6.90   906.90     0  11:51        6.85
  5441                 JUNCTION     1.58     5.36   907.86     0  11:51        4.93
  5441_OUT             JUNCTION     0.07     0.65   904.65     0  12:00        0.65
  5442                 JUNCTION     0.12     6.52   912.21     0  12:00        6.52
  5443                 JUNCTION     0.10     6.52   912.94     0  11:59        6.52
  5444                 JUNCTION     0.05     6.08   912.94     0  11:58        6.07
  5445                 JUNCTION     0.00     0.91   912.98     0  11:58        0.89
  5446                 JUNCTION     0.00     0.00   914.82     0  00:00        0.00
  5447                 JUNCTION     0.11     6.39   913.39     0  11:57        6.39
  5448                 JUNCTION     0.03     4.89   910.43     0  12:00        4.87
  5449                 JUNCTION     0.00     0.02   885.62     0  11:58        0.02
  5450                 JUNCTION     0.10     1.45   894.08     0  12:00        1.45
  5450A                JUNCTION     0.00     0.00   898.50     0  11:59        0.00
  5452                 JUNCTION     0.11     5.29   899.17     0  11:59        5.29
  5453                 JUNCTION     0.00     0.24   899.17     0  12:00        0.24
  5454                 JUNCTION     0.00     0.00   901.61     0  00:00        0.00
  5470                 JUNCTION     0.07     6.24   913.59     0  12:00        6.23
  5471                 JUNCTION     0.05     6.38   913.85     0  12:00        6.37
  5475                 JUNCTION     0.03     4.50   912.30     0  12:00        4.49
  6001                 JUNCTION     0.00     0.00   927.63     0  00:00        0.00
  6002                 JUNCTION     0.00     0.00   928.30     0  00:00        0.00
  6004                 JUNCTION     0.15     2.01   911.91     0  12:02        2.01
  6011                 JUNCTION     0.02     6.21   918.21     0  12:00        6.18
  6012                 JUNCTION     0.08     6.39   917.38     0  11:57        6.39
  6012A                JUNCTION     0.00     0.29   916.79     0  11:59        0.29
  6015                 JUNCTION     0.08     9.45   904.75     0  11:59        6.76
  EXC_E                JUNCTION     0.01     0.22   916.22     0  11:55        0.22
  EXC_OVR              JUNCTION     0.00     0.00   923.80     0  00:00        0.00
  JCT-14               JUNCTION     0.00     0.00   899.00     0  00:00        0.00
  K1                   JUNCTION     0.00     0.02   928.02     1  17:29        0.02
  OUT-WEST             JUNCTION     0.03     0.45   916.45     0  11:55        0.45
  P1_OVR               JUNCTION     0.00     0.00   885.50     0  12:20        0.00
  P1_W                 JUNCTION     0.01     0.49   884.49     0  12:10        0.47
  P2OVR                JUNCTION     0.00     0.00   900.60     0  00:00        0.00
  PC                   JUNCTION     0.00     0.00   879.00     0  12:01        0.00
  POND1_OUT            JUNCTION     0.16     1.68   881.78     0  12:16        1.68
  POND2_OUT            JUNCTION     0.00     0.01   892.01     2  03:18        0.01
  STR_5442             JUNCTION     0.01     1.23   912.21     0  12:00        1.23
  101_N_OUT            OUTFALL      0.01     0.03   903.93     0  13:18        0.03
  110_OUT              OUTFALL      0.01     0.53   916.53     0  11:55        0.53
  5400                 OUTFALL      0.04     1.50   931.20     0  11:55        1.50
  COV_LA_N_OUT         OUTFALL      0.03     0.86   910.86     0  12:02        0.86
  COV_LA_S_OUT         OUTFALL      0.00     0.00   890.00     0  00:00        0.00
  COV_TER_E_OUT        OUTFALL      0.00     0.00   899.00     0  00:00        0.00
  KATH_OUT             OUTFALL      0.00     0.00   928.00     0  00:00        0.00
  OUTEX                OUTFALL      0.00     0.16   916.16     0  11:56        0.16
  OUT_WEST2            OUTFALL      0.01     0.37   916.37     0  11:56        0.37
  PC_OUT               OUTFALL      0.00     0.00   879.00     0  00:00        0.00
  SPRING_OUT           OUTFALL      0.00     0.00   891.00     0  00:00        0.00
  5001A                STORAGE      0.34     4.15   885.80     0  12:11        4.15
  5003                 STORAGE      0.47     1.29   883.79     0  11:57        1.29
  5008                 STORAGE      0.33     4.34   886.03     0  12:00        4.34
  5031                 STORAGE      0.51     4.66   885.74     0  12:18        4.66
  5033                 STORAGE      0.29     3.95   885.75     0  12:22        3.95
  5201                 STORAGE      1.56     5.17   900.68     0  12:02        5.17
  5210                 STORAGE      1.62     5.17   918.50     0  12:07        5.17
  5224                 STORAGE      1.02     6.22   921.65     0  12:00        6.22
  5228                 STORAGE      0.53     3.10   911.35     0  12:00        3.04
  5247                 STORAGE      0.08     3.72   919.07     0  12:05        3.71
  5355                 STORAGE      0.12     0.81   922.31     0  12:04        0.81
  5415A                STORAGE      0.07     5.20   917.94     0  11:55        5.20
  5419                 STORAGE      1.06     4.24   920.24     0  13:58        4.24
  5422                 STORAGE      0.05     0.44   896.31     0  12:00        0.44
  5451                 STORAGE      0.11     1.86   894.65     0  12:26        1.86
  6000                 STORAGE      0.37     1.38   927.50     0  13:39        1.38
  6005                 STORAGE      0.05     2.89   913.09     0  12:02        2.89
  871B                 STORAGE      0.03     1.26   922.46     0  12:01        1.26
  EXC_ST               STORAGE      0.28     1.22   920.72     0  12:33        1.22
  P3                   STORAGE      1.70     4.58   913.33     0  12:01        4.58
  POND1                STORAGE      0.54     4.76   885.76     0  12:14        4.76
  POND2                STORAGE      1.19     3.79   898.54     0  16:18        3.79
  
  
  *******************
  Node Inflow Summary
  *******************
  
  -------------------------------------------------------------------------------------------------
                                  Maximum  Maximum                  Lateral       Total        Flow
                                  Lateral    Total  Time of Max      Inflow      Inflow     Balance
                                   Inflow   Inflow   Occurrence      Volume      Volume       Error
  Node                 Type           CFS      CFS  days hr:min    10^6 gal    10^6 gal     Percent
  -------------------------------------------------------------------------------------------------
  101_N                JUNCTION      0.00     2.67     0  13:17           0        1.17      -0.014
  110                  JUNCTION      3.33     3.33     0  11:57      0.0454      0.0454      -0.190
  5001                 JUNCTION      0.00    10.26     0  11:55           0       0.172      -0.189
  5002                 JUNCTION      0.98     0.98     0  11:57      0.0162      0.0164      -0.419
  5003_O               JUNCTION      0.00    14.29     0  11:57           0       0.205       0.027
  5004                 JUNCTION      4.00    13.57     0  11:57      0.0594       0.206      -0.056
  5005                 JUNCTION      2.26    10.33     0  11:56      0.0368       0.146       0.046
  5006                 JUNCTION      5.46     7.97     0  11:56      0.0719       0.109      -0.030
  5009                 JUNCTION      4.02     4.02     0  11:56      0.0643      0.0646      -0.156
  5010                 JUNCTION      2.45     2.45     0  11:57      0.0376      0.0376       0.093
  5032                 JUNCTION      6.81     8.30     0  11:59      0.0765       0.339      -0.088
  5034                 JUNCTION      0.00     0.66     0  11:54           0     0.00138      -2.534
  5035                 JUNCTION      0.00     0.00     0  00:00           0           0       0.000 gal
  5035A                JUNCTION      0.00     0.00     0  00:00           0           0       0.000 gal
  5037                 JUNCTION      0.00    66.83     0  12:15           0        1.58      -0.033
  5046                 JUNCTION      0.00     1.61     0  11:52           0     0.00667      -3.882
  5047                 JUNCTION      0.00     1.04     0  11:52           0     0.00396       0.806
  5048                 JUNCTION      0.00     0.58     0  12:00           0     0.00113      -0.966
  5051                 JUNCTION      0.00    79.25     0  11:59           0         2.2       0.001
  5052                 JUNCTION      1.48    79.18     0  11:59      0.0238         2.2      -0.021
  5053                 JUNCTION      3.23    75.82     0  12:00      0.0338        2.14      -0.018
  5053A                JUNCTION      5.36    79.14     0  11:59      0.0544        2.11      -0.014
  5054                 JUNCTION      7.05   171.47     0  11:59      0.0751        2.03       0.329
  5055                 JUNCTION      0.00    39.40     0  12:00           0       0.863       0.107
  5056                 JUNCTION      3.71    38.83     0  12:00      0.0141        0.85       0.002
  5057                 JUNCTION      2.46    35.11     0  12:00      0.0337       0.811      -0.011
  5058                 JUNCTION      3.36    32.09     0  12:00      0.0516       0.736      -0.126
  5059                 JUNCTION      2.72    30.79     0  12:00      0.0444       0.685       0.093
  5060                 JUNCTION      7.81    31.32     0  11:57       0.095       0.641      -0.034
  5061                 JUNCTION      7.03    19.67     0  11:55       0.078       0.454       0.011
  5062                 JUNCTION      4.40    18.74     0  11:55      0.0727       0.339      -0.937
  5063                 JUNCTION      1.31    15.84     0  11:55      0.0219       0.213       0.100
  5064                 JUNCTION      1.55     9.71     0  11:56      0.0227       0.111       0.376
  5065                 JUNCTION      1.86     8.15     0  11:56      0.0251      0.0884      -0.125
  5066                 JUNCTION      6.28     6.28     0  11:57      0.0635      0.0635       0.301
  5070                 JUNCTION      2.85     2.85     0  11:57      0.0375      0.0375       0.489
  5071                 JUNCTION      2.72     2.72     0  11:57      0.0357      0.0357       0.070
  5072                 JUNCTION      1.70     1.70     0  11:57      0.0259      0.0259       0.617
  5073                 JUNCTION      0.00     1.05     0  11:53           0    0.000359       3.455
  5073A                JUNCTION      0.00     1.52     0  11:54           0    0.000544       0.000
  5074                 JUNCTION      4.69     4.69     0  11:57      0.0594      0.0594       0.143
  5075                 JUNCTION      5.60     5.60     0  11:57      0.0327      0.0327      -0.723
  5077                 JUNCTION      2.63     6.44     0  11:51      0.0374      0.0377       0.122
  5079                 JUNCTION      0.00     1.07     0  11:55           0      0.0132       0.104
  5080                 JUNCTION      1.04     1.04     0  11:57      0.0132      0.0132      -0.118
  5081                 JUNCTION      1.98     5.09     0  11:56      0.0329      0.0813       0.306
  5082                 JUNCTION      3.16     4.09     0  11:57      0.0478       0.051      -0.548
  5083                 JUNCTION      0.00     3.59     0  11:57           0     0.00423      -0.138
  5084                 JUNCTION      0.00     2.10     0  11:57           0     0.00121       0.844
  5090                 JUNCTION      0.00    11.09     0  11:52           0       0.054       0.025
  5091                 JUNCTION      0.00    10.20     0  11:52           0      0.0508      -0.035
  5092                 JUNCTION      3.20     5.03     0  11:53       0.049      0.0493      -0.292
  5100                 JUNCTION      0.00     0.33     0  12:00           0    8.21e-05       9.992
  5101                 JUNCTION      0.00     0.00     0  00:00           0           0       0.000 gal
  5104                 JUNCTION      0.00     4.27     0  11:52           0      0.0413      -0.256
  5105                 JUNCTION      2.51     2.51     0  11:57      0.0394      0.0394       0.421
  5108                 JUNCTION      0.00     2.33     0  11:59           0      0.0291       0.366
  5109                 JUNCTION      0.00     2.29     0  11:59           0      0.0291      -0.119
  5110                 JUNCTION      2.13     2.13     0  11:57      0.0291      0.0291      -0.089
  5200                 JUNCTION      4.73    66.90     0  12:03      0.0462         2.1       0.184
  5201A                JUNCTION     32.74    93.59     0  11:56       0.204        2.03      -0.020
  5202                 JUNCTION      0.00    66.04     0  11:57           0        1.83      -0.054
  5203                 JUNCTION      1.43    52.44     0  12:01      0.0233        1.67       0.032
  5204                 JUNCTION      1.79    52.35     0  12:00      0.0207         1.4      -0.059
  5205                 JUNCTION      0.00    52.02     0  11:59           0         1.4      -0.069
  5206                 JUNCTION     13.13    52.66     0  12:00      0.0901        1.38      -0.001
  5207                 JUNCTION      0.00    40.38     0  12:00           0        1.25       0.025
  5208                 JUNCTION      3.13    30.49     0  12:08      0.0119        1.04      -0.066
  5209                 JUNCTION      0.00    30.39     0  12:07           0        1.08      -0.136
  5211                 JUNCTION      1.24    50.45     0  11:57      0.0182       0.812      -0.351
  5211A                JUNCTION      0.00     0.00     0  00:00           0           0       0.000 gal
  5212                 JUNCTION      1.42    50.86     0  11:56      0.0219       0.798       0.441
  5212A                JUNCTION      0.00     0.00     0  00:00           0           0       0.000 gal
  5213                 JUNCTION      1.20    47.54     0  11:56      0.0173       0.747      -0.092
  5213A                JUNCTION      6.64    45.45     0  11:56       0.063         0.7       0.045
  5214                 JUNCTION      7.72    38.83     0  11:56       0.088       0.634       0.034
  5215                 JUNCTION      0.00    31.78     0  12:00           0       0.511      -0.047
  5216                 JUNCTION      2.73    31.08     0  11:57       0.037         0.5      -0.005
  5216A                JUNCTION      1.76    36.78     0  11:55      0.0231       0.428      -0.116
  5217                 JUNCTION      3.61    31.47     0  11:55      0.0582       0.395       0.093
  5218                 JUNCTION      3.47    24.29     0  11:55      0.0461       0.291       0.050
  5219                 JUNCTION      6.63     6.63     0  11:57      0.0529      0.0529       0.590
  5220                 JUNCTION      2.75     2.75     0  11:57      0.0357      0.0357      -0.054
  5221                 JUNCTION      0.71     0.71     0  11:57      0.0113      0.0113      -0.120
  5222                 JUNCTION      2.27     2.27     0  11:57      0.0343      0.0343       0.386
  5223                 JUNCTION      2.40     2.40     0  11:57      0.0299      0.0299       0.678
  5225                 JUNCTION      0.00     0.81     0  11:54           0     0.00075      -0.495
  5226                 JUNCTION      2.33    22.24     0  11:57      0.0361       0.208      -0.028
  5227                 JUNCTION     20.45    20.45     0  11:57       0.172       0.172       0.021
  5229                 JUNCTION      4.05     4.05     0  11:57      0.0417      0.0417      -0.092
  5230                 JUNCTION     21.96    21.96     0  11:57       0.171       0.171       0.777
  5231                 JUNCTION      0.00     1.79     0  11:55           0      0.0147      -0.063
  5232                 JUNCTION     26.67    28.20     0  11:57       0.159       0.184       0.821
  5233                 JUNCTION      1.54     1.54     0  11:57      0.0247      0.0247       0.243
  5235                 JUNCTION      1.14     1.14     0  11:56      0.0172      0.0172      -0.039
  5241                 JUNCTION      0.00    13.70     2  03:17           0        2.29      -0.024
  5241A                JUNCTION      0.00     0.00     0  00:00           0           0       0.000 gal
  5242                 JUNCTION      3.02    16.55     2  03:17      0.0355        2.35      -0.004
  5242A                JUNCTION      0.00     0.00     0  00:00           0           0       0.000 gal
  5243                 JUNCTION      0.00    12.68     0  11:56           0       0.829      -0.161
  5244                 JUNCTION      3.21     9.99     0  11:57      0.0427       0.102       0.766
  5245                 JUNCTION      6.79     6.79     0  11:57      0.0594      0.0594      -0.079
  5246                 JUNCTION      0.00    15.42     0  11:57           0       0.135      -0.170
  5246A                JUNCTION      0.00    15.47     0  11:57           0       0.133      -0.136
  5248                 JUNCTION     10.05    10.05     0  11:57      0.0752       0.077       0.166
  5260                 JUNCTION      2.48    14.94     0  11:58      0.0403       0.192       0.213
  5261                 JUNCTION      7.69    13.51     0  11:58      0.0646       0.152      -0.031
  5262                 JUNCTION      2.55     9.97     0  12:04      0.0268      0.0872      -0.028
  5263                 JUNCTION      1.28     8.38     0  12:02      0.0204      0.0674       0.636
  5265                 JUNCTION      7.20    12.18     0  12:00      0.0273       0.273      -0.051
  5266                 JUNCTION     31.64    38.45     0  12:00       0.206       0.234       0.063
  5267                 JUNCTION      0.00     0.00     0  00:00           0           0       0.000 gal
  5270                 JUNCTION      0.00     0.60     1  17:28           0       0.149      -0.007
  5271                 JUNCTION      9.46    10.19     0  11:57       0.102       0.149       0.081
  5272                 JUNCTION      4.77     4.77     0  11:57      0.0477      0.0477       0.428
  5272A                JUNCTION      0.00     0.00     0  00:00           0           0       0.000 gal
  5275                 JUNCTION      2.25     5.77     0  11:55     0.00859      0.0102       1.073
  5277                 JUNCTION      0.00     6.35     0  11:56           0      0.0398       0.091
  5278                 JUNCTION      6.41     6.41     0  11:57      0.0397      0.0397      -0.130
  5280                 JUNCTION      0.37     2.43     0  11:53      0.0064     0.00937      -0.206
  5281                 JUNCTION      0.00     2.20     0  11:54           0    0.000958       0.437
  5283                 JUNCTION      0.00     4.21     0  11:55           0      0.0468       0.030
  5284                 JUNCTION      0.00     4.21     0  11:55           0      0.0467      -0.099
  5285                 JUNCTION      4.12     4.12     0  11:57      0.0466      0.0467      -0.077
  5290                 JUNCTION      0.00     7.35     0  11:55           0     0.00961      -0.745
  5291                 JUNCTION      0.00     7.74     0  11:56           0     0.00243     -18.792
  5297                 JUNCTION      2.01     2.01     0  11:57       0.029       0.029     -49.680
  5303                 JUNCTION      0.49    21.75     0  11:55     0.00826         0.3       0.003
  5304                 JUNCTION      4.31    37.94     0  11:56      0.0586        0.35      -0.113
  5305                 JUNCTION     14.68    33.64     0  11:57       0.137       0.292      -0.012
  5305A                JUNCTION     18.95    18.95     0  11:57       0.155       0.155      -0.041
  5309                 JUNCTION     18.61    35.96     0  11:55        0.19       0.503       0.052
  5314                 JUNCTION      0.00    11.87     0  12:05           0       0.367       3.423
  5315                 JUNCTION      0.00    11.87     0  12:04           0       0.387       0.635
  5316                 JUNCTION      1.37    14.56     0  12:00      0.0222       0.359       0.635
  5317                 JUNCTION      2.23    19.07     0  11:56      0.0317       0.309       0.011
  5317A                JUNCTION      0.00     0.00     0  12:00           0     1.4e-08       0.014 gal
  5318                 JUNCTION      2.35    18.13     0  11:55      0.0291       0.276       0.341
  5318A                JUNCTION      2.69    14.67     0  11:57      0.0266       0.226       0.221
  5319                 JUNCTION      2.99    12.46     0  11:57      0.0226       0.186      -0.295
  5320                 JUNCTION      2.94     8.96     0  11:56      0.0322       0.128      -0.032
  5321                 JUNCTION      0.72     5.92     0  11:56      0.0113      0.0715      -0.438
  5322                 JUNCTION      0.86     4.92     0  11:55       0.014      0.0438       0.791
  5323                 JUNCTION      2.20     3.49     0  11:55      0.0294      0.0295      -0.195
  5325                 JUNCTION      2.25     4.45     0  11:57       0.032      0.0759       0.064
  5326                 JUNCTION      2.20     2.20     0  11:57      0.0348      0.0348      -0.011
  5326A                JUNCTION      0.00     0.00     0  00:00           0           0       0.000 gal
  5330                 JUNCTION      0.00     2.64     0  12:00           0     0.00227       0.830
  5331                 JUNCTION      0.00     0.00     0  00:00           0           0       0.000 gal
  5337                 JUNCTION      1.12    37.67     0  11:56      0.0194       0.614      -0.008
  5338                 JUNCTION      0.74    36.69     0  12:00      0.0129       0.595      -0.014
  5339                 JUNCTION      2.36    36.03     0  11:59      0.0382       0.582      -0.021
  5340                 JUNCTION      1.69     2.68     0  11:55      0.0281      0.0415       0.153
  5341                 JUNCTION      0.76     1.27     0  11:55      0.0129      0.0131      -0.073
  5345                 JUNCTION      1.07     4.01     0  11:55      0.0167      0.0167      -0.114
  5346                 JUNCTION      1.82     1.82     0  11:57      0.0241      0.0241       0.415
  5350                 JUNCTION      1.33     1.33     0  11:57      0.0214      0.0214      -0.004
  5360                 JUNCTION      3.06     3.06     0  11:57      0.0362      0.0362       0.365
  5361                 JUNCTION      0.79     3.06     0  11:55      0.0124      0.0127      -0.058
  5370                 JUNCTION      0.00     2.67     0  13:16           0        1.17      -0.001
  5371                 JUNCTION      1.09    15.18     0  12:25      0.0165        1.66      -0.054
  5371A                JUNCTION      1.36    32.76     0  12:08      0.0195         1.1       0.086
  5371B                JUNCTION      0.00     0.00     0  00:00           0           0       0.000 gal
  5371C                JUNCTION      0.00     0.00     0  00:00           0           0       0.000 gal
  5372                 JUNCTION      0.00    49.57     0  11:59           0         1.2      -0.028
  5372A                JUNCTION      0.00    68.18     0  11:57           0        1.12      29.029
  5373                 JUNCTION      2.27    64.17     0  11:57       0.029        0.99       0.476
  5374                 JUNCTION      0.00    24.30     0  11:56           0       0.344      -0.005
  5375                 JUNCTION      1.01    24.75     0  11:56      0.0144       0.344      -0.000
  5376                 JUNCTION      1.97     1.97     0  11:57        0.03      0.0301      -0.064
  5381                 JUNCTION      0.00    11.59     0  12:41           0       0.856      -0.002
  5382                 JUNCTION      0.00     7.71     0  13:16           0       0.517       0.017
  5382A                JUNCTION      0.00     0.00     0  00:00           0           0       0.000 gal
  5383                 JUNCTION      0.66     4.37     0  13:26      0.0097       0.206      -0.001
  5383A                JUNCTION      0.00     0.00     0  00:00           0           0       0.000 gal
  5384                 JUNCTION      2.86     2.86     0  11:57      0.0435      0.0435       0.023
  5401                 JUNCTION      9.79    17.98     0  11:57      0.0994       0.185       0.037
  5402                 JUNCTION      0.00     8.37     0  11:57           0      0.0854       0.009
  5403                 JUNCTION      2.03     8.42     0  11:57      0.0219      0.0853      -0.081
  5404                 JUNCTION      6.43     6.43     0  11:57      0.0635      0.0635      -0.036
  5410                 JUNCTION      0.00     5.70     0  11:41           0       0.426       0.084
  5410A                JUNCTION      0.00    33.39     0  12:00           0         1.1      -0.014
  5411                 JUNCTION      4.13     6.21     0  11:55       0.054       0.447       0.021
  5412                 JUNCTION     15.24    23.06     0  11:57       0.134       0.899      -0.057
  5413                 JUNCTION      0.00    11.96     0  11:53           0       0.728      -0.011
  5414                 JUNCTION      0.00    14.11     0  11:52           0        0.73       0.103
  5415                 JUNCTION      9.04    14.27     0  11:57      0.0948        0.69       0.033
  5416                 JUNCTION      0.00     7.07     0  11:54           0       0.549      -0.057
  5417                 JUNCTION      2.78     4.49     0  11:52       0.027       0.492      -0.002
  5418                 JUNCTION      0.00     3.95     0  11:52           0       0.468      -0.004
  5419A                JUNCTION      0.00     3.79     0  11:52           0       0.467      -0.002
  5420                 JUNCTION      1.68     5.50     0  11:57      0.0251      0.0598      -0.233
  5420A                JUNCTION      3.81     3.81     0  11:57      0.0349      0.0349       0.540
  5421                 JUNCTION      7.42     7.42     0  11:57      0.0708      0.0708       0.197
  5423                 JUNCTION      0.00    12.48     0  12:00           0       0.187      -0.242
  5424                 JUNCTION      3.03    14.04     0  11:55      0.0295       0.187       0.025
  5425                 JUNCTION      0.00     9.28     0  11:54           0       0.122       0.387
  5426                 JUNCTION      3.35     3.35     0  11:57      0.0357      0.0357      -0.063
  5428                 JUNCTION      5.67    13.44     0  12:00      0.0672       0.273      -0.096
  5428A                JUNCTION      0.00     0.91     0  11:51           0     0.00162      -1.531
  5429                 JUNCTION      0.00     9.31     0  12:00           0       0.205       0.249
  5430                 JUNCTION      0.00    11.53     0  11:57           0       0.208       0.007
  5431                 JUNCTION     12.59    12.59     0  11:57       0.205       0.205      -0.022
  5432                 JUNCTION      0.00     4.83     0  12:04           0       0.287      -0.001
  5433                 JUNCTION      0.00     5.40     0  11:49           0       0.287       0.006
  5434                 JUNCTION      5.30    18.60     0  11:56      0.0601       0.292       1.696
  5435                 JUNCTION      0.00     6.75     0  11:51           0       0.179      -0.114
  5436                 JUNCTION      0.00    15.70     0  11:57           0       0.232      -0.022
  5436A                JUNCTION     15.87    15.87     0  11:57       0.232       0.232      -0.044
  5437                 JUNCTION      0.00     2.24     0  11:52           0     0.00156      -5.767
  5438                 JUNCTION      0.00     1.23     0  11:51           0     0.00282      -3.624
  5440                 JUNCTION      0.00     3.85     0  12:00           0       0.109       1.275
  5441                 JUNCTION      0.00    17.52     0  12:00           0       0.368       0.526
  5441_OUT             JUNCTION      0.00    37.35     0  12:00           0       0.446       0.123
  5442                 JUNCTION     10.35    13.51     0  11:57        0.13       0.321       0.089
  5443                 JUNCTION      0.00     4.68     0  11:45           0       0.188      -0.045
  5444                 JUNCTION      0.00     0.69     0  12:02           0     0.00253       0.099
  5445                 JUNCTION      0.00     0.50     0  11:56           0    0.000525       0.522
  5446                 JUNCTION      0.00     0.00     0  00:00           0           0       0.000 gal
  5447                 JUNCTION     36.03    36.03     0  11:57       0.319       0.319      -0.043
  5448                 JUNCTION      0.00    28.15     0  12:00           0       0.139      -0.073
  5449                 JUNCTION      0.00    85.82     0  12:00           0       0.745      -0.003
  5450                 JUNCTION     10.66    12.24     0  12:00        0.13       0.705       0.036
  5450A                JUNCTION      0.00    72.98     0  12:00           0      0.0356     -14.149
  5452                 JUNCTION     79.67    79.67     0  11:57       0.615       0.615       0.998
  5453                 JUNCTION      0.00     0.49     0  11:59           0    0.000157       1.469
  5454                 JUNCTION      0.00     0.00     0  00:00           0           0       0.000 gal
  5470                 JUNCTION      3.82     6.70     0  11:55      0.0566      0.0987       0.007
  5471                 JUNCTION      2.90     2.90     0  11:57       0.042       0.042      -0.222
  5475                 JUNCTION      2.91     2.91     0  11:57      0.0234      0.0234       0.233
  6001                 JUNCTION      0.00     0.00     0  00:00           0           0       0.000 gal
  6002                 JUNCTION      0.00     0.00     0  00:00           0           0       0.000 gal
  6004                 JUNCTION      0.00     4.13     0  12:02           0      0.0707       0.020
  6011                 JUNCTION      0.00     5.16     0  12:00           0     0.00429      -3.482
  6012                 JUNCTION     98.07    98.07     0  11:57        1.06        1.07       0.300
  6012A                JUNCTION      0.00    82.17     0  11:59           0       0.117       0.142
  6015                 JUNCTION      0.00    45.75     0  11:55           0       0.945      -0.048
  EXC_E                JUNCTION      3.62     3.62     0  11:57      0.0485      0.0485      -0.008
  EXC_OVR              JUNCTION      0.00     0.00     0  00:00           0           0       0.000 gal
  JCT-14               JUNCTION      0.00     0.00     0  00:00           0           0       0.000 gal
  K1                   JUNCTION      0.00     0.49     1  17:29           0       0.149       0.005
  OUT-WEST             JUNCTION      1.72     1.72     0  11:57      0.0218      0.0218      -0.086
  P1_OVR               JUNCTION      0.00     5.16     0  12:14           0      0.0423      -0.001
  P1_W                 JUNCTION      0.00    65.83     0  12:16           0       0.752       0.833
  P2OVR                JUNCTION      0.00     0.00     0  00:00           0           0       0.000 gal
  PC                   JUNCTION      0.00    86.14     0  12:01           0        3.19      -0.005
  POND1_OUT            JUNCTION      0.00    69.53     0  12:15           0        2.55       0.003
  POND2_OUT            JUNCTION      0.00    38.35     2  03:16           0        2.25      -0.009
  STR_5442             JUNCTION      0.00    33.09     0  11:57           0       0.144       0.212
  101_N_OUT            OUTFALL       0.00     2.67     0  13:18           0        1.17       0.000
[...]
  DUMMY_5270              1.00   0.00  0.00  0.00  0.83  0.17  0.00  0.00  0.42  0.00
  DUMMY_5440              1.03   0.00  0.01  0.00  0.99  0.00  0.00  0.00  0.00  0.00
  DUMMY_6012              1.69   0.00  0.00  0.00  0.00  0.00  0.00  1.00  0.00  0.00
  EX_E-D                 11.27   0.42  0.00  0.00  0.58  0.00  0.00  0.00  0.00  0.00
  OW2                     4.16   0.00  0.00  0.00  0.98  0.02  0.00  0.00  0.00  0.00
  P1O3                    8.49   0.01  0.97  0.00  0.02  0.00  0.00  0.00  0.92  0.00
  P1OUT1                  1.00   0.01  0.00  0.00  0.10  0.89  0.00  0.00  0.00  0.00
  P1_OVR                  1.35   0.99  0.00  0.00  0.01  0.00  0.00  0.00  0.91  0.00
  P1_WEIR1               25.52   0.98  0.00  0.00  0.00  0.01  0.01  0.00  0.00  0.00
  P2OVR                   8.82   0.00  1.00  0.00  0.00  0.00  0.00  0.00  0.00  0.00
  P3IN                    9.05   0.13  0.12  0.00  0.74  0.01  0.00  0.00  0.79  0.00
  P3OUT                   2.10   0.99  0.01  0.00  0.00  0.00  0.00  0.00  0.91  0.00
  PIPE - (5430)           1.90   0.00  0.00  0.00  0.83  0.17  0.00  0.00  0.24  0.00
  POND2_OVR               2.51   0.50  0.50  0.00  0.00  0.00  0.00  0.00  0.00  0.00
  P_5200A                 5.02   0.00  0.02  0.00  0.27  0.00  0.71  0.00  0.00  0.00
  STR_5447                1.00   0.08  0.92  0.00  0.00  0.00  0.00  0.00  0.92  0.00
  _EX_5447               12.02   0.00  0.01  0.00  0.98  0.00  0.00  0.00  0.00  0.00
  
  
  *************************
  Conduit Surcharge Summary
  *************************
  
  ----------------------------------------------------------------------------
                                                           Hours        Hours 
                         --------- Hours Full --------   Above Full   Capacity
  Conduit                Both Ends  Upstream  Dnstream   Normal Flow   Limited
  ----------------------------------------------------------------------------
  1_5001A                     2.35      2.35      3.67      0.01         0.01
  1_5002                      2.04      2.04      2.85      0.01         0.01
  1_5004                      0.13      0.17      0.13      0.09         0.13
  1_5005                      0.01      0.01      0.15      0.01         0.01
  1_5006                      0.01      0.10      0.01      0.01         0.01
  1_5008                      5.68      5.68      6.13      0.28         0.36
  1_5009                      3.87      3.87      4.42      0.10         0.18
  1_5010                      0.01      0.01      0.02      0.01         0.01
  1_5052                      0.40      0.40      1.11      0.01         0.03
  1_5053                      0.37      0.37      0.40      0.01         0.31
  1_5054                      0.26      0.31      0.26      0.01         0.26
  1_5054 (1)                  0.19      0.19      0.34      0.01         0.01
  1_5056                      0.14      0.33      0.14      0.20         0.14
  1_5057                      0.16      0.31      0.16      0.20         0.16
  1_5058                      0.31      0.37      0.31      0.30         0.31
  1_5059                      0.34      0.36      0.34      0.34         0.34
  1_5060                      0.38      0.39      0.39      0.28         0.38
  1_5061                      0.33      0.33      0.38      0.01         0.07
  1_5062                      0.33      0.34      0.34      0.16         0.25
  1_5063                      0.17      0.17      0.30      0.01         0.01
  1_5064                      0.10      0.15      0.12      0.07         0.06
  1_5065                      0.13      0.14      0.14      0.02         0.10
  1_5066                      0.12      0.15      0.12      0.11         0.10
  1_5070                      0.37      0.37      0.38      0.01         0.01
  1_5073                      0.24      0.24      0.26      0.01         0.01
  1_5073A                     0.18      0.18      0.19      0.01         0.01
  1_5074                      0.32      0.32      0.32      0.01         0.10
  1_5075                      0.36      0.37      0.37      0.01         0.14
  1_5077                      0.31      0.31      0.31      0.01         0.01
  1_5081                      0.11      0.11      0.17      0.01         0.01
  1_5201                      0.01      0.01      3.29      0.01         0.01
  1_5201A                     0.26      0.26      3.02      0.01         0.01
  1_5202                      0.20      0.22      0.26      0.01         0.10
  1_5203                      0.09      0.15      0.09      0.01         0.09
  1_5204                      0.01      0.03      0.01      0.01         0.01
  1_5205                      0.01      0.05      0.01      0.01         0.01
  1_5206                      0.01      0.08      0.01      0.07         0.01
  1_5207                      0.01      0.01      0.01      0.50         0.01
  1_5208                      0.01      0.01      0.01      0.01         0.01
  1_5209                      0.01      0.23      0.01      0.36         0.01
  1_5210                      0.23      0.23      1.16      0.01         0.01
  1_5211                      0.32      0.32      1.16      0.01         0.01
  1_5212                      0.22      0.25      0.22      0.28         0.22
  1_5213                      0.25      0.27      0.25      0.28         0.25
  1_5213A                     0.18      0.18      0.28      0.01         0.07
  1_5214                      0.13      0.13      0.18      0.01         0.01
  1_5215                      0.12      0.16      0.12      0.06         0.12
  1_5216                      0.16      0.23      0.16      0.14         0.16
  1_5216A                     0.18      0.18      0.23      0.01         0.01
  1_5217                      0.17      0.17      0.18      0.01         0.03
  1_5218                      0.17      0.21      0.17      0.18         0.15
  1_5219                      0.14      0.18      0.15      0.13         0.09
  1_5220                      0.23      0.23      0.27      0.01         0.01
  1_5221                      0.16      0.16      0.24      0.01         0.01
  1_5222                      0.12      0.12      0.13      0.01         0.01
  1_5223                      0.23      0.23      0.24      0.01         0.01
  1_5224                      0.27      0.27      0.50      0.01         0.01
  1_5225                      0.25      0.25      0.26      0.01         0.01
  1_5227                      0.15      0.16      0.15      0.16         0.15
  1_5228                      0.05      0.05      0.14      0.01         0.01
  1_5230                      0.12      0.18      0.13      0.13         0.08
  1_5231                      0.12      0.12      0.90      0.01         0.01
  1_5232                      0.01      0.14      0.01      0.13         0.01
  1_5233                      0.01      0.01      0.13      0.01         0.01
  1_5241                      0.01     25.31      0.01      0.01         0.01
  1_5242                     25.03     25.03     25.31      0.01         0.01
  1_5243                     38.39     38.39     38.64      0.01         0.01
  1_5244                      0.01      0.01     23.26      0.01         0.01
  1_5246                      0.69      0.69      5.12      0.01         0.01
  1_5246A                     0.68      0.68      0.69      0.01         0.17
  1_5247                      0.56      0.56      0.68      0.01         0.03
  1_5247 (1)                  0.69      0.69      1.47      0.01         0.01
  1_5247 (2)                  0.68      0.68      0.69      0.01         0.17
  1_5251                      0.56      0.56      0.65      0.01         0.01
  1_5260                      0.16      0.19      0.16      0.13         0.13
  1_5261                      0.19      0.21      0.19      0.20         0.19
  1_5262                      0.21      0.21      0.21      0.07         0.18
  1_5263                      0.21      0.21      0.21      0.06         0.13
  1_5265                      0.01      0.01      0.02      0.01         0.01
  1_5271                      0.01      0.01      4.90      0.01         0.01
  1_5275                      0.16      0.16      0.21      0.01         0.01
  1_5277                      0.21      0.21      0.21      0.17         0.18
  1_5278                      0.21      0.22      0.21      0.16         0.17
  1_5280                      0.30      0.30      0.46      0.01         0.01
  1_5281                      0.27      0.27      0.30      0.01         0.01
  1_5283                      0.19      0.19      0.23      0.01         0.01
  1_5284                      0.18      0.18      0.19      0.01         0.01
  1_5285                      0.17      0.18      0.18      0.14         0.10
  1_5290                      0.11      0.11      0.13      0.01         0.01
  1_5291                      0.10      0.10      0.11      0.01         0.01
  1_5303                      0.01      0.01      0.01      0.01         0.01
  1_5304                      0.01      0.10      0.01      0.12         0.01
  1_5305                      0.14      0.16      0.14      0.15         0.14
  1_5306                      0.15      0.15      0.16      0.10         0.15
  1_5309                      0.22      0.22      0.25      0.37         0.01
  1_5310                      0.23      0.23      0.26      0.01         0.01
  1_5313                    139.59    139.59    140.16      0.01         0.41
  1_5316                      0.52      0.52    139.59      0.01         0.01
  1_5317                      0.26      0.26      0.35      0.01         0.11
  1_5318                      0.16      0.22      0.24      0.09         0.10
  1_5318A                     0.18      0.19      0.19      0.11         0.13
  1_5319                      0.19      0.21      0.19      0.12         0.18
  1_5320                      0.20      0.20      0.21      0.01         0.12
  1_5321                      0.14      0.14      0.19      0.01         0.01
  1_5323                      0.11      0.11      0.11      0.01         0.01
  1_5325                      0.03      0.03    132.99      0.01         0.01
  1_5330                      0.01      0.01      0.11      0.01         0.01
  1_5337                      0.01      0.01      0.01      0.01         0.01
  1_5338                      0.01      0.14      0.01      0.32         0.01
  1_5339                      0.14      0.22      0.14      0.22         0.14
  1_5341                      0.21      0.21      0.23      0.01         0.01
  1_5345                      0.13      0.13      0.13      0.01         0.01
  1_5346                      0.14      0.14      0.15      0.01         0.01
  1_5360                      0.12      0.12      0.13      0.01         0.01
  1_5361                      0.11      0.11      0.15      0.01         0.01
  1_5371                      7.57      7.57     11.01      0.01         0.01
  1_5371A                     1.42      1.66      6.59      0.01         1.01
  1_5372                      0.01      0.01      1.66      0.01         0.01
  1_5372A                     0.01      0.01      0.71      0.01         0.01
  1_5373                      0.01      0.08      0.01      0.15         0.01
  1_5381                      4.10      4.10      7.57      0.01         0.01
  1_5382                      2.99      2.99      4.10      0.01         0.01
  1_5383                      0.01      0.01      2.99      0.01         0.01
  1_5400                      0.04      0.15      0.04      0.13         0.04
  1_5402                      0.01      0.01      0.04      0.01         0.01
  1_5403                      0.01      0.15      0.01      0.16         0.01
  1_5404                      0.15      0.17      0.15      0.17         0.15
  1_5411                     30.09     30.12     30.28      0.04         0.11
  1_5412                     29.99     30.00     30.12      0.02         0.06
  1_5413                      0.42      0.42      0.62      0.01         0.01
  1_5414                      0.36      0.38      0.36      0.08         0.18
  1_5415                      0.30      0.46      0.30      0.36         0.22
  1_5415A                     0.39      0.39      0.40      0.31         0.18
  1_5416                      0.33      0.34      0.34      0.18         0.19
  1_5417                      0.27      0.27      0.29      0.01         0.01
  1_5418                      0.26      0.26      0.27      0.01         0.01
  1_5419                      0.28      0.28      0.28     35.30         0.13
  1_5420                      0.19      0.19      0.34      0.01         0.01
  1_5420A                     0.11      0.11      0.15      0.01         0.01
  1_5421                      0.33      0.36      0.33      0.21         0.18
  1_5422                      0.01      0.01      2.20      0.38         0.01
  1_5423                      0.13      0.24      0.13      0.22         0.13
  1_5424                      0.21      0.22      0.22      0.21         0.21
  1_5425                      0.17      0.17      0.17      0.10         0.12
  1_5426                      0.19      0.19      0.19      0.10         0.15
  1_5428                     14.00     14.00     25.61      0.24         0.31
  1_5428A                     9.78      9.78     13.25      0.01         0.01
  1_5429                      0.31      0.36      0.31      0.33         0.31
  1_5430                      0.29      0.40      0.29      0.37         0.29
  1_5431                      0.39      0.45      0.40      0.45         0.39
  1_5433                      0.01      2.43      0.01      0.01         0.01
  1_5434                      1.25      1.25      2.43      0.01         0.01
  1_5434A                     1.13      1.13      1.25      0.01         0.07
  1_5435                      1.07      1.07      1.13      0.01         0.08
  1_5436                      1.03      1.03      1.10      0.10         0.16
  1_5436A                     1.03      1.03      1.07      0.14         0.17
  1_5437                      0.33      0.33      0.34      0.01         0.01
  1_5437 (10)                 0.27      0.27      0.30      0.01         0.01
  1_5437 (11)                 0.27      0.27      0.30      0.01         0.01
  1_5437 (14)                 0.10      0.10      0.11      0.01         0.01
  1_5437 (15)                 0.11      0.11      0.15      0.01         0.01
  1_5437 (2)                  0.17      0.17      0.18      0.01         0.03
  1_5437 (20)                 0.18      0.18      0.19      0.01         0.01
  1_5437 (21)                 0.19      0.19      0.21      0.01         0.01
  1_5437 (3)                  0.18      0.18      0.23      0.01         0.01
  1_5437 (4)                  0.13      0.13    132.07      0.01         0.01
  1_5437 (7)                  0.25      0.25      0.26      0.01         0.02
  1_5437 (8)                  0.25      0.26      0.27      0.01         0.07
  1_5437 (9)                  0.25      0.25      0.27      0.01         0.01
  1_5438                      0.26      0.26      0.29      0.01         0.01
  1_5439                      0.13      0.13      0.14      0.01         0.03
  1_5441                    142.22    142.22    142.57      0.01         0.01
  1_5442                      0.36      0.50      0.36      0.47         0.36
  1_5443                      0.46      0.46      0.47      0.14         0.30
  1_5444                      0.43      0.43      0.46      0.01         0.01
  1_5445                      0.01      0.01      0.18      0.01         0.01
  1_5447                      0.43      0.45      0.43      0.17         0.35
  1_5448                      0.22      0.24      0.22      0.24         0.22
  1_5451                      0.01      0.53      0.01      0.01         0.01
  1_5452                      0.07      0.74      0.07      0.53         0.07
  1_5453                      0.01      0.01      0.09      0.01         0.01
  1_5470                      0.14      0.24      0.14      0.23         0.13
  1_5471                      0.23      0.23      0.24      0.05         0.17
  1_5475                      0.11      0.11      0.11      0.01         0.02
  1_6005                      0.44      0.44      0.44      0.43         0.44
  1_6012                      0.13      0.13      0.28      0.01         0.02
  1_6015                      0.25      0.25      0.47      0.01         0.19
  1_ 5031                     4.49      4.49      5.11      0.01         0.58
  1_ 5032                     3.83      3.83      4.49      0.01         0.33
  1_ 5033                     2.00      2.00      3.83      0.01         0.01
  1_ 5034                     0.91      0.91    132.20      0.01         0.01
  1_ 5049                     0.01      0.01      0.01      2.15         0.01
  1_ 5060                     0.23      0.23      0.26      0.01         0.01
  1_ 5061                     0.26      0.26      0.31      0.01         0.01
  1_ 5062                     0.31      0.31      0.34      0.01         0.01
  1_ 5063                     0.27      0.27      0.30      0.01         0.01
  1_ 5073                     0.19      0.19      0.28      0.01         0.01
  1_ 5082                     0.09      0.09      0.11      0.01         0.01
  1_ 5083                     0.09      0.09      0.09      0.01         0.03
  1_ 5084                     0.08      0.08      0.09      0.01         0.03
  1_ 5090                     0.30      0.30      0.31      0.01         0.01
  1_ 5091                     0.29      0.30      0.30      0.01         0.02
  1_ 5092                     0.30      0.30      0.30      0.01         0.08
  21EX                        0.01     11.11      0.01      0.01         0.01
  5000_OVR                    3.96      3.96      5.11      0.01         0.01
  5001_OVR                    1.00      1.00      1.89      0.01         0.01
  5317A                       0.01      0.01    131.99      0.01         0.01
  5372A                       0.51      0.51    135.16      0.01         0.01
  5436_OVR                    0.32      0.32    132.15      0.01         0.01
  5442_OVR                    0.18      0.18      0.18      0.09         0.09
  5442_OVR2                   0.01      0.18      0.01      0.18         0.01
  5452O                       0.01      0.01    132.01      0.01         0.01
  6012A                       0.01      0.01      0.22      0.01         0.01
  6012B                       0.01      0.01      0.55      0.01         0.01
  6IN1                       16.14     30.90     16.14     32.26        15.95
  CDT-19                      0.01      0.01      0.31      0.01         0.01
  DRAINTILE                  45.10     45.10     59.34      0.01         0.01
  DT_POND1                    3.81     20.84      3.81     22.38         3.81
  DUMMY_03                    0.01      0.01      0.44      0.45         0.01
  DUMMY_04                    0.01      0.01     33.25      0.01         0.01
  DUMMY_5270                  0.01      4.90      0.01      0.01         0.01
  DUMMY_5440                  0.01      0.01    142.11      0.01         0.01
  DUMMY_6012                  0.12      0.14      0.18      0.01         0.11
  P1_OVR                      0.01      0.01      0.50      0.01         0.01
  P1_WEIR1                    0.01      0.01      0.01      0.26         0.01
  P3IN                        0.01      0.01     54.61      0.01         0.01
  PIPE - (5430)               0.26      0.26      0.37      0.01         0.01
  STR_5447                    0.17      0.18      0.18      0.16         0.15
  _EX_5447                    0.01      0.01    142.11      0.22         0.01
  

  Analysis begun on:  Wed Jun 24 15:09:28 2026
  Analysis ended on:  Wed Jun 24 15:09:55 2026
  Total elapsed time: 00:00:27