
  EPA STORM WATER MANAGEMENT MODEL - VERSION 5.2 (Build 5.2.4)
  ------------------------------------------------------------

  WARNING 04: minimum elevation drop used for Conduit 10174
  WARNING 04: minimum elevation drop used for Conduit 10213
  WARNING 04: minimum elevation drop used for Conduit 10322
  WARNING 08: elevation drop exceeds length for Conduit 10412
  WARNING 04: minimum elevation drop used for Conduit 10595
  WARNING 04: minimum elevation drop used for Conduit 10697
  WARNING 08: elevation drop exceeds length for Conduit 10710
  WARNING 04: minimum elevation drop used for Conduit 10748
  WARNING 04: minimum elevation drop used for Conduit 10815
  WARNING 04: minimum elevation drop used for Conduit 10916
  WARNING 04: minimum elevation drop used for Conduit 10917
  WARNING 08: elevation drop exceeds length for Conduit 15361
  WARNING 08: elevation drop exceeds length for Conduit 16642
  WARNING 08: elevation drop exceeds length for Conduit 22
  WARNING 04: minimum elevation drop used for Conduit 27
  WARNING 04: minimum elevation drop used for Conduit 27903
  WARNING 04: minimum elevation drop used for Conduit 28302
  WARNING 08: elevation drop exceeds length for Conduit 30
  WARNING 04: minimum elevation drop used for Conduit 3032
  WARNING 08: elevation drop exceeds length for Conduit 31
  WARNING 04: minimum elevation drop used for Conduit 3479
  WARNING 04: minimum elevation drop used for Conduit 3505
  WARNING 04: minimum elevation drop used for Conduit 3506
  WARNING 08: elevation drop exceeds length for Conduit 3850
  WARNING 04: minimum elevation drop used for Conduit 8029
  WARNING 04: minimum elevation drop used for Conduit 8131
  WARNING 04: minimum elevation drop used for Conduit 8223
  WARNING 04: minimum elevation drop used for Conduit 9797
  WARNING 04: minimum elevation drop used for Conduit 9834
  WARNING 02: maximum depth increased for Node 24255
  WARNING 02: maximum depth increased for Node 24256
  WARNING 02: maximum depth increased for Node 3252
  WARNING 02: maximum depth increased for Node 3715
  WARNING 02: maximum depth increased for Node 3716
  WARNING 02: maximum depth increased for Node 3920
  WARNING 02: maximum depth increased for Node 3929
  WARNING 02: maximum depth increased for Node 3930
  WARNING 02: maximum depth increased for Node 3931
  WARNING 02: maximum depth increased for Node 3960
  WARNING 02: maximum depth increased for Node 4547
  WARNING 02: maximum depth increased for Node 4555
  WARNING 02: maximum depth increased for Node 4558
  WARNING 02: maximum depth increased for Node 4559
  WARNING 02: maximum depth increased for Node 4560
  WARNING 02: maximum depth increased for Node 4561
  WARNING 02: maximum depth increased for Node 4562
  WARNING 02: maximum depth increased for Node 4604
  WARNING 02: maximum depth increased for Node 4745
  WARNING 02: maximum depth increased for Node 4912
  WARNING 02: maximum depth increased for Node 5016
  WARNING 02: maximum depth increased for Node 5066
  WARNING 02: maximum depth increased for Node 5070
  WARNING 02: maximum depth increased for Node 5098
  WARNING 02: maximum depth increased for Node 5101
  WARNING 02: maximum depth increased for Node 5172
  WARNING 02: maximum depth increased for Node 5184
  WARNING 02: maximum depth increased for Node 5265
  WARNING 02: maximum depth increased for Node 5306
  WARNING 02: maximum depth increased for Node 5380
  
  ****************
  Analysis Options
  ****************
  Flow Units ............... GPM
  Process Models:
    Rainfall/Runoff ........ NO
    RDII ................... NO
    Snowmelt ............... NO
    Groundwater ............ NO
    Flow Routing ........... YES
    Ponding Allowed ........ NO
    Water Quality .......... NO
  Flow Routing Method ...... DYNWAVE
  Surcharge Method ......... EXTRAN
  Starting Date ............ 01/01/2002 00:00:00
  Ending Date .............. 01/01/2002 06:00:00
  Antecedent Dry Days ...... 5.0
  Report Time Step ......... 00:05:00
  Routing Time Step ........ 300.00 sec
  Variable Time Step ....... YES
  Maximum Trials ........... 4
  Number of Threads ........ 1
  Head Tolerance ........... 0.005000 ft
  
  
  **************************        Volume        Volume
  Flow Routing Continuity        acre-feet      10^6 gal
  **************************     ---------     ---------
  Dry Weather Inflow .......         0.000         0.000
  Wet Weather Inflow .......         0.000         0.000
  Groundwater Inflow .......         0.000         0.000
  RDII Inflow ..............         0.000         0.000
  External Inflow ..........         0.000         0.000
  External Outflow .........         0.000         0.000
  Flooding Loss ............         0.000         0.000
  Evaporation Loss .........         0.000         0.000
  Exfiltration Loss ........         0.000         0.000
  Initial Stored Volume ....         0.000         0.000
  Final Stored Volume ......         0.000         0.000
  Continuity Error (%) .....         0.000
  
  
  ***************************
  Time-Step Critical Elements
  ***************************
  None
  
  
  ********************************
  Highest Flow Instability Indexes
  ********************************
  All links are stable.
  
  
  *********************************
  Most Frequent Nonconverging Nodes
  *********************************
  Convergence obtained at all time steps.
  
  
  *************************
  Routing Time Step Summary
  *************************
  Minimum Time Step           :   300.00 sec
  Average Time Step           :   295.89 sec
  Maximum Time Step           :   300.00 sec
  % of Time in Steady State   :     0.00
  Average Iterations per Step :     2.00
  % of Steps Not Converging   :     0.00
  Time Step Frequencies       :
     300.000 - 24.082 sec      :   100.00 %
     24.082 -  1.933 sec      :     0.00 %
      1.933 -  0.155 sec      :     0.00 %
      0.155 -  0.012 sec      :     0.00 %
      0.012 -  0.001 sec      :     0.00 %
  
  
  ******************
  Node Depth Summary
  ******************
  
  ---------------------------------------------------------------------------------
                                 Average  Maximum  Maximum  Time of Max    Reported
                                   Depth    Depth      HGL   Occurrence   Max Depth
  Node                 Type         Feet     Feet     Feet  days hr:min        Feet
  ---------------------------------------------------------------------------------
  12489                JUNCTION     0.00     0.00   955.72     0  00:00        0.00
  12490                JUNCTION     0.00     0.00   957.00     0  00:00        0.00
  12491                JUNCTION     0.00     0.00   958.50     0  00:00        0.00
  12492                JUNCTION     0.00     0.00   959.73     0  00:00        0.00
  12493                JUNCTION     0.00     0.00   958.06     0  00:00        0.00
  12494                JUNCTION     0.00     0.00   958.93     0  00:00        0.00
  12889                JUNCTION     0.00     0.00   910.60     0  00:00        0.00
  12890                JUNCTION     0.00     0.00   923.74     0  00:00        0.00
  12891                JUNCTION     0.00     0.00   925.43     0  00:00        0.00
  12892                JUNCTION     0.00     0.00   926.95     0  00:00        0.00
  12893                JUNCTION     0.00     0.00   916.50     0  00:00        0.00
  12894                JUNCTION     0.00     0.00   919.31     0  00:00        0.00
  12895                JUNCTION     0.00     0.00   925.77     0  00:00        0.00
  12896                JUNCTION     0.00     0.00   928.98     0  00:00        0.00
  12897                JUNCTION     0.00     0.00   922.99     0  00:00        0.00
  12898                JUNCTION     0.00     0.00   924.28     0  00:00        0.00
  12899                JUNCTION     0.00     0.00   925.33     0  00:00        0.00
  12900                JUNCTION     0.00     0.00   927.76     0  00:00        0.00
  13289                JUNCTION     0.00     0.00   922.09     0  00:00        0.00
  13290                JUNCTION     0.00     0.00   922.25     0  00:00        0.00
  13291                JUNCTION     0.00     0.00   922.42     0  00:00        0.00
  13292                JUNCTION     0.00     0.00   922.69     0  00:00        0.00
  13293                JUNCTION     0.00     0.00   922.98     0  00:00        0.00
  14089                JUNCTION     0.00     0.00   934.18     0  00:00        0.00
  14090                JUNCTION     0.00     0.00   933.67     0  00:00        0.00
  14091                JUNCTION     0.00     0.00   932.67     0  00:00        0.00
  14092                JUNCTION     0.00     0.00   933.19     0  00:00        0.00
  14093                JUNCTION     0.00     0.00   931.71     0  00:00        0.00
  14094                JUNCTION     0.00     0.00   931.10     0  00:00        0.00
  14095                JUNCTION     0.00     0.00   931.63     0  00:00        0.00
  14096                JUNCTION     0.00     0.00   930.10     0  00:00        0.00
  14097                JUNCTION     0.00     0.00   929.11     0  00:00        0.00
  14098                JUNCTION     0.00     0.00   929.67     0  00:00        0.00
  14099                JUNCTION     0.00     0.00   928.27     0  00:00        0.00
  14100                JUNCTION     0.00     0.00   927.80     0  00:00        0.00
  14101                JUNCTION     0.00     0.00   928.52     0  00:00        0.00
  14102                JUNCTION     0.00     0.00   926.86     0  00:00        0.00
  14103                JUNCTION     0.00     0.00   927.61     0  00:00        0.00
  14104                JUNCTION     0.00     0.00   926.17     0  00:00        0.00
  14105                JUNCTION     0.00     0.00   925.84     0  00:00        0.00
  14106                JUNCTION     0.00     0.00   925.37     0  00:00        0.00
  14107                JUNCTION     0.00     0.00   926.11     0  00:00        0.00
  14108                JUNCTION     0.00     0.00   926.44     0  00:00        0.00
  14109                JUNCTION     0.00     0.00   926.26     0  00:00        0.00
  14110                JUNCTION     0.00     0.00   925.72     0  00:00        0.00
  14111                JUNCTION     0.00     0.00   925.01     0  00:00        0.00
  14113                JUNCTION     0.00     0.00   923.59     0  00:00        0.00
  14114                JUNCTION     0.00     0.00   923.95     0  00:00        0.00
  14115                JUNCTION     0.00     0.00   924.19     0  00:00        0.00
  14516                JUNCTION     0.00     0.00   544.57     0  00:00        0.00
  14517                JUNCTION     0.00     0.00   545.19     0  00:00        0.00
  14520                JUNCTION     0.00     0.00   546.66     0  00:00        0.00
  14522                JUNCTION     0.00     0.00   926.26     0  00:00        0.00
  14523                JUNCTION     0.00     0.00   542.54     0  00:00        0.00
  14916                JUNCTION     0.00     0.00   932.32     0  00:00        0.00
  14917                JUNCTION     0.00     0.00   930.93     0  00:00        0.00
  14918                JUNCTION     0.00     0.00   929.48     0  00:00        0.00
  14919                JUNCTION     0.00     0.00   930.32     0  00:00        0.00
  14920                JUNCTION     0.00     0.00   931.86     0  00:00        0.00
  14921                JUNCTION     0.00     0.00   934.56     0  00:00        0.00
  14922                JUNCTION     0.00     0.00   928.75     0  00:00        0.00
  14923                JUNCTION     0.00     0.00   927.55     0  00:00        0.00
  14924                JUNCTION     0.00     0.00   948.00     0  00:00        0.00
  14925                JUNCTION     0.00     0.00   949.90     0  00:00        0.00
  15324                JUNCTION     0.00     0.00   913.68     0  00:00        0.00
  15325                JUNCTION     0.00     0.00   912.05     0  00:00        0.00
  15326                JUNCTION     0.00     0.00   910.90     0  00:00        0.00
  15330                JUNCTION     0.00     0.00   921.26     0  00:00        0.00
  15331                JUNCTION     0.00     0.00   924.93     0  00:00        0.00
  15332                JUNCTION     0.00     0.00   929.00     0  00:00        0.00
  15333                JUNCTION     0.00     0.00   931.40     0  00:00        0.00
  15334                JUNCTION     0.00     0.00   932.57     0  00:00        0.00
  15335                JUNCTION     0.00     0.00   923.61     0  00:00        0.00
  15336                JUNCTION     0.00     0.00   922.29     0  00:00        0.00
  15337                JUNCTION     0.00     0.00   934.58     0  00:00        0.00
  15338                JUNCTION     0.00     0.00   934.83     0  00:00        0.00
  15339                JUNCTION     0.00     0.00   935.91     0  00:00        0.00
  15340                JUNCTION     0.00     0.00   936.91     0  00:00        0.00
  15341                JUNCTION     0.00     0.00   939.54     0  00:00        0.00
  15342                JUNCTION     0.00     0.00   924.05     0  00:00        0.00
  15343                JUNCTION     0.00     0.00   925.75     0  00:00        0.00
  15344                JUNCTION     0.00     0.00   853.75     0  00:00        0.00
  15345                JUNCTION     0.00     0.00   867.25     0  00:00        0.00
  15346                JUNCTION     0.00     0.00   873.80     0  00:00        0.00
  15347                JUNCTION     0.00     0.00   874.85     0  00:00        0.00
  15348                JUNCTION     0.00     0.00   883.30     0  00:00        0.00
  15349                JUNCTION     0.00     0.00   883.80     0  00:00        0.00
  15350                JUNCTION     0.00     0.00   875.50     0  00:00        0.00
  15351                JUNCTION     0.00     0.00   868.65     0  00:00        0.00
  15352                JUNCTION     0.00     0.00   920.40     0  00:00        0.00
  15353                JUNCTION     0.00     0.00   925.06     0  00:00        0.00
  15354                JUNCTION     0.00     0.00   921.22     0  00:00        0.00
  15355                JUNCTION     0.00     0.00   919.08     0  00:00        0.00
  15356                JUNCTION     0.00     0.00   916.68     0  00:00        0.00
  15357                JUNCTION     0.00     0.00   914.34     0  00:00        0.00
  15358                JUNCTION     0.00     0.00   912.33     0  00:00        0.00
  15359                JUNCTION     0.00     0.00   910.82     0  00:00        0.00
  15360                JUNCTION     0.00     0.00   902.95     0  00:00        0.00
  15361                JUNCTION     0.00     0.00   903.26     0  00:00        0.00
  15362                JUNCTION     0.00     0.00   898.92     0  00:00        0.00
  15363                JUNCTION     0.00     0.00   910.99     0  00:00        0.00
  15364                JUNCTION     0.00     0.00   918.96     0  00:00        0.00
  15365                JUNCTION     0.00     0.00   928.38     0  00:00        0.00
  15366                JUNCTION     0.00     0.00   904.76     0  00:00        0.00
  15367                JUNCTION     0.00     0.00   905.69     0  00:00        0.00
  15368                JUNCTION     0.00     0.00   907.12     0  00:00        0.00
  15369                JUNCTION     0.00     0.00   918.69     0  00:00        0.00
  15370                JUNCTION     0.00     0.00   919.60     0  00:00        0.00
  15371                JUNCTION     0.00     0.00   920.42     0  00:00        0.00
  15372                JUNCTION     0.00     0.00   922.73     0  00:00        0.00
  15373                JUNCTION     0.00     0.00   923.71     0  00:00        0.00
  15374                JUNCTION     0.00     0.00   925.25     0  00:00        0.00
  15375                JUNCTION     0.00     0.00   918.88     0  00:00        0.00
  15376                JUNCTION     0.00     0.00   917.46     0  00:00        0.00
  15377                JUNCTION     0.00     0.00   915.11     0  00:00        0.00
  15378                JUNCTION     0.00     0.00   911.97     0  00:00        0.00
  15382                JUNCTION     0.00     0.00   913.16     0  00:00        0.00
  15383                JUNCTION     0.00     0.00   915.05     0  00:00        0.00
  15779                JUNCTION     0.00     0.00   877.36     0  00:00        0.00
  15781                JUNCTION     0.00     0.00   924.16     0  00:00        0.00
  15782                JUNCTION     0.00     0.00   924.73     0  00:00        0.00
  15784                JUNCTION     0.00     0.00   912.81     0  00:00        0.00
  15785                JUNCTION     0.00     0.00   927.92     0  00:00        0.00
  15786                JUNCTION     0.00     0.00   928.81     0  00:00        0.00
  15787                JUNCTION     0.00     0.00   930.01     0  00:00        0.00
  15788                JUNCTION     0.00     0.00   931.31     0  00:00        0.00
  15789                JUNCTION     0.00     0.00   932.61     0  00:00        0.00
  15790                JUNCTION     0.00     0.00   933.53     0  00:00        0.00
  15791                JUNCTION     0.00     0.00   940.73     0  00:00        0.00
  15792                JUNCTION     0.00     0.00   941.39     0  00:00        0.00
  15793                JUNCTION     0.00     0.00   935.37     0  00:00        0.00
  15794                JUNCTION     0.00     0.00   934.74     0  00:00        0.00
  15795                JUNCTION     0.00     0.00   936.04     0  00:00        0.00
  15796                JUNCTION     0.00     0.00   942.11     0  00:00        0.00
  15797                JUNCTION     0.00     0.00   939.00     0  00:00        0.00
  15798                JUNCTION     0.00     0.00   950.90     0  00:00        0.00
  16188                JUNCTION     0.00     0.00   920.40     0  00:00        0.00
  16189                JUNCTION     0.00     0.00   918.10     0  00:00        0.00
  16190                JUNCTION     0.00     0.00   918.70     0  00:00        0.00
  16191                JUNCTION     0.00     0.00   917.90     0  00:00        0.00
  16192                JUNCTION     0.00     0.00   902.51     0  00:00        0.00
  16193                JUNCTION     0.00     0.00   903.00     0  00:00        0.00
  16194                JUNCTION     0.00     0.00   910.00     0  00:00        0.00
  16195                JUNCTION     0.00     0.00   911.47     0  00:00        0.00
  16196                JUNCTION     0.00     0.00   956.81     0  00:00        0.00
  16197                JUNCTION     0.00     0.00   943.00     0  00:00        0.00
  16198                JUNCTION     0.00     0.00   936.46     0  00:00        0.00
  16199                JUNCTION     0.00     0.00   944.84     0  00:00        0.00
  16996                JUNCTION     0.00     0.00   917.00     0  00:00        0.00
  16997                JUNCTION     0.00     0.00   918.06     0  00:00        0.00
  16998                JUNCTION     0.00     0.00   919.00     0  00:00        0.00
  16999                JUNCTION     0.00     0.00   919.00     0  00:00        0.00
  17000                JUNCTION     0.00     0.00   919.50     0  00:00        0.00
  17001                JUNCTION     0.00     0.00   920.00     0  00:00        0.00
  17002                JUNCTION     0.00     0.00   919.15     0  00:00        0.00
  17003                JUNCTION     0.00     0.00   917.71     0  00:00        0.00
  17004                JUNCTION     0.00     0.00   917.04     0  00:00        0.00
  17005                JUNCTION     0.00     0.00   916.10     0  00:00        0.00
  17006                JUNCTION     0.00     0.00   915.52     0  00:00        0.00
  17007                JUNCTION     0.00     0.00   932.08     0  00:00        0.00
  17008                JUNCTION     0.00     0.00   933.44     0  00:00        0.00
  17009                JUNCTION     0.00     0.00   934.43     0  00:00        0.00
  17010                JUNCTION     0.00     0.00   936.02     0  00:00        0.00
  17011                JUNCTION     0.00     0.00   932.16     0  00:00        0.00
  17012                JUNCTION     0.00     0.00   933.45     0  00:00        0.00
  17013                JUNCTION     0.00     0.00   934.78     0  00:00        0.00
  17014                JUNCTION     0.00     0.00   931.83     0  00:00        0.00
  17015                JUNCTION     0.00     0.00   932.76     0  00:00        0.00
  17016                JUNCTION     0.00     0.00   933.25     0  00:00        0.00
  17017                JUNCTION     0.00     0.00   933.80     0  00:00        0.00
  17018                JUNCTION     0.00     0.00   934.91     0  00:00        0.00
  17019                JUNCTION     0.00     0.00   936.05     0  00:00        0.00
  17020                JUNCTION     0.00     0.00   934.50     0  00:00        0.00
  17021                JUNCTION     0.00     0.00   931.97     0  00:00        0.00
  17023                JUNCTION     0.00     0.00   932.91     0  00:00        0.00
  17024                JUNCTION     0.00     0.00   933.61     0  00:00        0.00
  17025                JUNCTION     0.00     0.00   951.90     0  00:00        0.00
  17026                JUNCTION     0.00     0.00   953.82     0  00:00        0.00
  17027                JUNCTION     0.00     0.00   954.92     0  00:00        0.00
  17407                JUNCTION     0.00     0.00   938.61     0  00:00        0.00
  17408                JUNCTION     0.00     0.00   938.71     0  00:00        0.00
  17409                JUNCTION     0.00     0.00   938.89     0  00:00        0.00
  17410                JUNCTION     0.00     0.00   939.14     0  00:00        0.00
  17411                JUNCTION     0.00     0.00   939.50     0  00:00        0.00
  17412                JUNCTION     0.00     0.00   941.40     0  00:00        0.00
  17413                JUNCTION     0.00     0.00   942.09     0  00:00        0.00
  17414                JUNCTION     0.00     0.00   942.54     0  00:00        0.00
  17415                JUNCTION     0.00     0.00   942.15     0  00:00        0.00
  17807                JUNCTION     0.00     0.00   959.34     0  00:00        0.00
  17808                JUNCTION     0.00     0.00   958.90     0  00:00        0.00
  17809                JUNCTION     0.00     0.00   958.23     0  00:00        0.00
  17810                JUNCTION     0.00     0.00   957.11     0  00:00        0.00
  17811                JUNCTION     0.00     0.00   956.35     0  00:00        0.00
  17812                JUNCTION     0.00     0.00   955.39     0  00:00        0.00
  17814                JUNCTION     0.00     0.00   959.31     0  00:00        0.00
  17815                JUNCTION     0.00     0.00   960.56     0  00:00        0.00
  17816                JUNCTION     0.00     0.00   928.20     0  00:00        0.00
  17817                JUNCTION     0.00     0.00   924.33     0  00:00        0.00
  17818                JUNCTION     0.00     0.00   926.20     0  00:00        0.00
  17819                JUNCTION     0.00     0.00   927.40     0  00:00        0.00
  17820                JUNCTION     0.00     0.00   928.47     0  00:00        0.00
  17821                JUNCTION     0.00     0.00   930.46     0  00:00        0.00
  17822                JUNCTION     0.00     0.00   931.58     0  00:00        0.00
  19016                JUNCTION     0.00     0.00   929.83     0  00:00        0.00
  19017                JUNCTION     0.00     0.00   930.11     0  00:00        0.00
  19018                JUNCTION     0.00     0.00   930.89     0  00:00        0.00
  19019                JUNCTION     0.00     0.00   931.37     0  00:00        0.00
  19020                JUNCTION     0.00     0.00   931.54     0  00:00        0.00
  19021                JUNCTION     0.00     0.00   911.41     0  00:00        0.00
  19022                JUNCTION     0.00     0.00   911.11     0  00:00        0.00
  19023                JUNCTION     0.00     0.00   912.10     0  00:00        0.00
  19024                JUNCTION     0.00     0.00   922.22     0  00:00        0.00
  19025                JUNCTION     0.00     0.00   925.43     0  00:00        0.00
  19421                JUNCTION     0.00     0.00   931.69     0  00:00        0.00
  19422                JUNCTION     0.00     0.00   934.40     0  00:00        0.00
  19423                JUNCTION     0.00     0.00   933.64     0  00:00        0.00
  19424                JUNCTION     0.00     0.00   934.35     0  00:00        0.00
  19425                JUNCTION     0.00     0.00   935.88     0  00:00        0.00
  20621                JUNCTION     0.00     0.00   859.50     0  00:00        0.00
  20622                JUNCTION     0.00     0.00   879.00     0  00:00        0.00
  20623                JUNCTION     0.00     0.00   906.00     0  00:00        0.00
  20624                JUNCTION     0.00     0.00   908.50     0  00:00        0.00
  20625                JUNCTION     0.00     0.00   910.00     0  00:00        0.00
  21021                JUNCTION     0.00     0.00   891.50     0  00:00        0.00
  21022                JUNCTION     0.00     0.00   931.02     0  00:00        0.00
  21023                JUNCTION     0.00     0.00   930.28     0  00:00        0.00
  21024                JUNCTION     0.00     0.00   929.06     0  00:00        0.00
  21025                JUNCTION     0.00     0.00   929.70     0  00:00        0.00
  21026                JUNCTION     0.00     0.00   930.36     0  00:00        0.00
  21027                JUNCTION     0.00     0.00   930.91     0  00:00        0.00
  21028                JUNCTION     0.00     0.00   944.00     0  00:00        0.00
  21029                JUNCTION     0.00     0.00   957.88     0  00:00        0.00
  21030                JUNCTION     0.00     0.00   956.95     0  00:00        0.00
  21031                JUNCTION     0.00     0.00   956.33     0  00:00        0.00
  21032                JUNCTION     0.00     0.00   952.59     0  00:00        0.00
  21033                JUNCTION     0.00     0.00   952.14     0  00:00        0.00
  21034                JUNCTION     0.00     0.00   950.93     0  00:00        0.00
  21035                JUNCTION     0.00     0.00   949.59     0  00:00        0.00
  21036                JUNCTION     0.00     0.00   948.99     0  00:00        0.00
  21037                JUNCTION     0.00     0.00   948.11     0  00:00        0.00
  21038                JUNCTION     0.00     0.00   951.86     0  00:00        0.00
  21039                JUNCTION     0.00     0.00   952.92     0  00:00        0.00
  21040                JUNCTION     0.00     0.00   954.34     0  00:00        0.00
  21041                JUNCTION     0.00     0.00   936.65     0  00:00        0.00
  21441                JUNCTION     0.00     0.00   936.50     0  00:00        0.00
  21442                JUNCTION     0.00     0.00   936.94     0  00:00        0.00
  21443                JUNCTION     0.00     0.00   937.74     0  00:00        0.00
  21444                JUNCTION     0.00     0.00   939.61     0  00:00        0.00
  21445                JUNCTION     0.00     0.00   941.35     0  00:00        0.00
  21446                JUNCTION     0.00     0.00   935.23     0  00:00        0.00
  21447                JUNCTION     0.00     0.00   936.46     0  00:00        0.00
  21448                JUNCTION     0.00     0.00   939.78     0  00:00        0.00
  21449                JUNCTION     0.00     0.00   937.70     0  00:00        0.00
  21841                JUNCTION     0.00     0.00   945.39     0  00:00        0.00
  21842                JUNCTION     0.00     0.00   946.11     0  00:00        0.00
  21843                JUNCTION     0.00     0.00   947.30     0  00:00        0.00
  22241                JUNCTION     0.00     0.00   928.51     0  00:00        0.00
  22242                JUNCTION     0.00     0.00   929.61     0  00:00        0.00
  22243                JUNCTION     0.00     0.00   938.10     0  00:00        0.00
  22244                JUNCTION     0.00     0.00   939.63     0  00:00        0.00
  22641                JUNCTION     0.00     0.00   929.57     0  00:00        0.00
  23042                JUNCTION     0.00     0.00   918.54     0  00:00        0.00
  23043                JUNCTION     0.00     0.00   911.03     0  00:00        0.00
  23044                JUNCTION     0.00     0.00   912.70     0  00:00        0.00
  23443                JUNCTION     0.00     0.00   934.81     0  00:00        0.00
  23445                JUNCTION     0.00     0.00   943.07     0  00:00        0.00
  23446                JUNCTION     0.00     0.00   913.17     0  00:00        0.00
  23848                JUNCTION     0.00     0.00   920.53     0  00:00        0.00
  23849                JUNCTION     0.00     0.00   921.68     0  00:00        0.00
  23850                JUNCTION     0.00     0.00   838.92     0  00:00        0.00
  24250                JUNCTION     0.00     0.00   903.15     0  00:00        0.00
  24251                JUNCTION     0.00     0.00   914.29     0  00:00        0.00
  24252                JUNCTION     0.00     0.00   913.34     0  00:00        0.00
  24253                JUNCTION     0.00     0.00   906.90     0  00:00        0.00
  24254                JUNCTION     0.00     0.00   906.08     0  00:00        0.00
  24255                JUNCTION     0.00     0.00   905.69     0  00:00        0.00
  24256                JUNCTION     0.00     0.00   904.14     0  00:00        0.00
  24650                JUNCTION     0.00     0.00   882.53     0  00:00        0.00
  24651                JUNCTION     0.00     0.00   934.00     0  00:00        0.00
  25051                JUNCTION     0.00     0.00   933.20     0  00:00        0.00
  25451                JUNCTION     0.00     0.00   951.00     0  00:00        0.00
  25452                JUNCTION     0.00     0.00   951.00     0  00:00        0.00
  25851                JUNCTION     0.00     0.00   859.78     0  00:00        0.00
  25852                JUNCTION     0.00     0.00   861.69     0  00:00        0.00
  25853                JUNCTION     0.00     0.00   862.31     0  00:00        0.00
  26251                JUNCTION     0.00     0.00   934.50     0  00:00        0.00
  26252                JUNCTION     0.00     0.00   936.27     0  00:00        0.00
  26651                JUNCTION     0.00     0.00   928.84     0  00:00        0.00
  26652                JUNCTION     0.00     0.00   930.66     0  00:00        0.00
  26653                JUNCTION     0.00     0.00   931.32     0  00:00        0.00
  27051                JUNCTION     0.00     0.00   864.37     0  00:00        0.00
  27052                JUNCTION     0.00     0.00   863.54     0  00:00        0.00
  27451                JUNCTION     0.00     0.00   864.68     0  00:00        0.00
  27452                JUNCTION     0.00     0.00   865.27     0  00:00        0.00
  27453                JUNCTION     0.00     0.00   917.50     0  00:00        0.00
  27454                JUNCTION     0.00     0.00   918.33     0  00:00        0.00
  27455                JUNCTION     0.00     0.00   919.18     0  00:00        0.00
  27456                JUNCTION     0.00     0.00   919.73     0  00:00        0.00
  27457                JUNCTION     0.00     0.00   919.82     0  00:00        0.00
  27458                JUNCTION     0.00     0.00   920.08     0  00:00        0.00
  27459                JUNCTION     0.00     0.00   920.18     0  00:00        0.00
  27460                JUNCTION     0.00     0.00   920.46     0  00:00        0.00
  27461                JUNCTION     0.00     0.00   920.66     0  00:00        0.00
  27462                JUNCTION     0.00     0.00   920.61     0  00:00        0.00
  27463                JUNCTION     0.00     0.00   920.71     0  00:00        0.00
  27464                JUNCTION     0.00     0.00   920.82     0  00:00        0.00
  27465                JUNCTION     0.00     0.00   920.92     0  00:00        0.00
  27466                JUNCTION     0.00     0.00   928.61     0  00:00        0.00
  27467                JUNCTION     0.00     0.00   929.51     0  00:00        0.00
  27468                JUNCTION     0.00     0.00   929.86     0  00:00        0.00
  27469                JUNCTION     0.00     0.00   931.04     0  00:00        0.00
  2942                 JUNCTION     0.00     0.00   927.45     0  00:00        0.00
  2943                 JUNCTION     0.00     0.00   929.20     0  00:00        0.00
  2944                 JUNCTION     0.00     0.00   929.65     0  00:00        0.00
  2945                 JUNCTION     0.00     0.00   930.59     0  00:00        0.00
  2946                 JUNCTION     0.00     0.00   931.14     0  00:00        0.00
  2947                 JUNCTION     0.00     0.00   915.06     0  00:00        0.00
  2948                 JUNCTION     0.00     0.00   916.01     0  00:00        0.00
  2949                 JUNCTION     0.00     0.00   917.00     0  00:00        0.00
  2950                 JUNCTION     0.00     0.00   917.77     0  00:00        0.00
  2951                 JUNCTION     0.00     0.00   918.58     0  00:00        0.00
  2952                 JUNCTION     0.00     0.00   919.41     0  00:00        0.00
  2953                 JUNCTION     0.00     0.00   920.02     0  00:00        0.00
  2954                 JUNCTION     0.00     0.00   920.44     0  00:00        0.00
  2955                 JUNCTION     0.00     0.00   921.14     0  00:00        0.00
  2956                 JUNCTION     0.00     0.00   929.80     0  00:00        0.00
  2957                 JUNCTION     0.00     0.00   930.39     0  00:00        0.00
  2958                 JUNCTION     0.00     0.00   931.50     0  00:00        0.00
  2959                 JUNCTION     0.00     0.00   933.19     0  00:00        0.00
  2960                 JUNCTION     0.00     0.00   932.70     0  00:00        0.00
  2961                 JUNCTION     0.00     0.00   930.56     0  00:00        0.00
  2962                 JUNCTION     0.00     0.00   932.38     0  00:00        0.00
  2963                 JUNCTION     0.00     0.00   922.10     0  00:00        0.00
  2964                 JUNCTION     0.00     0.00   922.76     0  00:00        0.00
  2965                 JUNCTION     0.00     0.00   923.31     0  00:00        0.00
  2966                 JUNCTION     0.00     0.00   924.92     0  00:00        0.00
  2967                 JUNCTION     0.00     0.00   925.48     0  00:00        0.00
  2968                 JUNCTION     0.00     0.00   926.29     0  00:00        0.00
  2969                 JUNCTION     0.00     0.00   928.14     0  00:00        0.00
  2970                 JUNCTION     0.00     0.00   922.19     0  00:00        0.00
  2971                 JUNCTION     0.00     0.00   923.31     0  00:00        0.00
  2972                 JUNCTION     0.00     0.00   925.48     0  00:00        0.00
  2973                 JUNCTION     0.00     0.00   927.39     0  00:00        0.00
  2974                 JUNCTION     0.00     0.00   928.66     0  00:00        0.00
  2975                 JUNCTION     0.00     0.00   928.82     0  00:00        0.00
  2976                 JUNCTION     0.00     0.00   929.87     0  00:00        0.00
  2977                 JUNCTION     0.00     0.00   930.15     0  00:00        0.00
  2978                 JUNCTION     0.00     0.00   932.39     0  00:00        0.00
  2979                 JUNCTION     0.00     0.00   933.68     0  00:00        0.00
  2980                 JUNCTION     0.00     0.00   936.18     0  00:00        0.00
  2981                 JUNCTION     0.00     0.00   931.23     0  00:00        0.00
  2982                 JUNCTION     0.00     0.00   932.59     0  00:00        0.00
  2983                 JUNCTION     0.00     0.00   934.05     0  00:00        0.00
  2984                 JUNCTION     0.00     0.00   934.52     0  00:00        0.00
  2985                 JUNCTION     0.00     0.00   914.64     0  00:00        0.00
  2986                 JUNCTION     0.00     0.00   914.18     0  00:00        0.00
  2987                 JUNCTION     0.00     0.00   913.80     0  00:00        0.00
  2988                 JUNCTION     0.00     0.00   913.46     0  00:00        0.00
  2989                 JUNCTION     0.00     0.00   916.90     0  00:00        0.00
  2990                 JUNCTION     0.00     0.00   926.78     0  00:00        0.00
  2991                 JUNCTION     0.00     0.00   928.65     0  00:00        0.00
  2992                 JUNCTION     0.00     0.00   930.49     0  00:00        0.00
  2993                 JUNCTION     0.00     0.00   932.20     0  00:00        0.00
  2994                 JUNCTION     0.00     0.00   933.10     0  00:00        0.00
  2995                 JUNCTION     0.00     0.00   934.39     0  00:00        0.00
  2996                 JUNCTION     0.00     0.00   934.83     0  00:00        0.00
  2997                 JUNCTION     0.00     0.00   935.72     0  00:00        0.00
  2998                 JUNCTION     0.00     0.00   934.36     0  00:00        0.00
  2999                 JUNCTION     0.00     0.00   918.30     0  00:00        0.00
  3000                 JUNCTION     0.00     0.00   923.21     0  00:00        0.00
  3001                 JUNCTION     0.00     0.00   924.89     0  00:00        0.00
  3002                 JUNCTION     0.00     0.00   926.55     0  00:00        0.00
  3003                 JUNCTION     0.00     0.00   927.86     0  00:00        0.00
  3004                 JUNCTION     0.00     0.00   898.19     0  00:00        0.00
  3005                 JUNCTION     0.00     0.00   899.63     0  00:00        0.00
  3006                 JUNCTION     0.00     0.00   905.93     0  00:00        0.00
  3007                 JUNCTION     0.00     0.00   896.58     0  00:00        0.00
  3008                 JUNCTION     0.00     0.00   900.72     0  00:00        0.00
  3009                 JUNCTION     0.00     0.00   901.79     0  00:00        0.00
  3010                 JUNCTION     0.00     0.00   902.56     0  00:00        0.00
  3011                 JUNCTION     0.00     0.00   903.73     0  00:00        0.00
  3012                 JUNCTION     0.00     0.00   904.19     0  00:00        0.00
  3013                 JUNCTION     0.00     0.00   905.37     0  00:00        0.00
  3014                 JUNCTION     0.00     0.00   905.80     0  00:00        0.00
  3015                 JUNCTION     0.00     0.00   906.62     0  00:00        0.00
  3016                 JUNCTION     0.00     0.00   908.24     0  00:00        0.00
  3017                 JUNCTION     0.00     0.00   908.90     0  00:00        0.00
  3018                 JUNCTION     0.00     0.00   910.30     0  00:00        0.00
  3019                 JUNCTION     0.00     0.00   910.78     0  00:00        0.00
  3020                 JUNCTION     0.00     0.00   912.21     0  00:00        0.00
  3021                 JUNCTION     0.00     0.00   913.05     0  00:00        0.00
  3022                 JUNCTION     0.00     0.00   914.37     0  00:00        0.00
  3023                 JUNCTION     0.00     0.00   915.02     0  00:00        0.00
  3024                 JUNCTION     0.00     0.00   915.70     0  00:00        0.00
  3025                 JUNCTION     0.00     0.00   918.20     0  00:00        0.00
  3026                 JUNCTION     0.00     0.00   919.27     0  00:00        0.00
  3027                 JUNCTION     0.00     0.00   920.56     0  00:00        0.00
  3029                 JUNCTION     0.00     0.00   898.03     0  00:00        0.00
  3030                 JUNCTION     0.00     0.00   904.04     0  00:00        0.00
  3031                 JUNCTION     0.00     0.00   908.00     0  00:00        0.00
  3032                 JUNCTION     0.00     0.00   911.98     0  00:00        0.00
  3033                 JUNCTION     0.00     0.00   916.46     0  00:00        0.00
  3034                 JUNCTION     0.00     0.00   926.50     0  00:00        0.00
  3035                 JUNCTION     0.00     0.00   927.51     0  00:00        0.00
  3036                 JUNCTION     0.00     0.00   928.57     0  00:00        0.00
  3037                 JUNCTION     0.00     0.00   929.83     0  00:00        0.00
  3038                 JUNCTION     0.00     0.00   930.55     0  00:00        0.00
  3039                 JUNCTION     0.00     0.00   931.08     0  00:00        0.00
  3040                 JUNCTION     0.00     0.00   928.67     0  00:00        0.00
  3041                 JUNCTION     0.00     0.00   929.82     0  00:00        0.00
  3042                 JUNCTION     0.00     0.00   930.32     0  00:00        0.00
  3043                 JUNCTION     0.00     0.00   931.24     0  00:00        0.00
  3044                 JUNCTION     0.00     0.00   924.41     0  00:00        0.00
  3045                 JUNCTION     0.00     0.00   923.05     0  00:00        0.00
  3046                 JUNCTION     0.00     0.00   927.89     0  00:00        0.00
  3047                 JUNCTION     0.00     0.00   929.35     0  00:00        0.00
  3048                 JUNCTION     0.00     0.00   930.83     0  00:00        0.00
  3049                 JUNCTION     0.00     0.00   931.17     0  00:00        0.00
  3050                 JUNCTION     0.00     0.00   931.72     0  00:00        0.00
  3051                 JUNCTION     0.00     0.00   927.97     0  00:00        0.00
  3052                 JUNCTION     0.00     0.00   930.01     0  00:00        0.00
  3053                 JUNCTION     0.00     0.00   930.78     0  00:00        0.00
  3054                 JUNCTION     0.00     0.00   931.92     0  00:00        0.00
  3055                 JUNCTION     0.00     0.00   955.28     0  00:00        0.00
  3056                 JUNCTION     0.00     0.00   954.51     0  00:00        0.00
  3057                 JUNCTION     0.00     0.00   956.41     0  00:00        0.00
  3058                 JUNCTION     0.00     0.00   951.65     0  00:00        0.00
  3059                 JUNCTION     0.00     0.00   950.68     0  00:00        0.00
  3060                 JUNCTION     0.00     0.00   960.55     0  00:00        0.00
  3061                 JUNCTION     0.00     0.00   953.19     0  00:00        0.00
  3062                 JUNCTION     0.00     0.00   954.04     0  00:00        0.00
  3063                 JUNCTION     0.00     0.00   954.54     0  00:00        0.00
  3064                 JUNCTION     0.00     0.00   954.87     0  00:00        0.00
  3065                 JUNCTION     0.00     0.00   939.83     0  00:00        0.00
  3066                 JUNCTION     0.00     0.00   939.32     0  00:00        0.00
  3067                 JUNCTION     0.00     0.00   938.73     0  00:00        0.00
  3068                 JUNCTION     0.00     0.00   938.23     0  00:00        0.00
  3069                 JUNCTION     0.00     0.00   937.66     0  00:00        0.00
  3070                 JUNCTION     0.00     0.00   936.89     0  00:00        0.00
  3071                 JUNCTION     0.00     0.00   935.86     0  00:00        0.00
  3072                 JUNCTION     0.00     0.00   934.39     0  00:00        0.00
  3073                 JUNCTION     0.00     0.00   934.29     0  00:00        0.00
  3074                 JUNCTION     0.00     0.00   917.29     0  00:00        0.00
  3075                 JUNCTION     0.00     0.00   915.08     0  00:00        0.00
  3076                 JUNCTION     0.00     0.00   914.27     0  00:00        0.00
  3077                 JUNCTION     0.00     0.00   913.73     0  00:00        0.00
  3078                 JUNCTION     0.00     0.00   913.00     0  00:00        0.00
  3079                 JUNCTION     0.00     0.00   928.21     0  00:00        0.00
  3080                 JUNCTION     0.00     0.00   928.11     0  00:00        0.00
  3081                 JUNCTION     0.00     0.00   929.40     0  00:00        0.00
  3082                 JUNCTION     0.00     0.00   930.15     0  00:00        0.00
  3083                 JUNCTION     0.00     0.00   931.57     0  00:00        0.00
  3084                 JUNCTION     0.00     0.00   932.48     0  00:00        0.00
  3085                 JUNCTION     0.00     0.00   933.24     0  00:00        0.00
  3086                 JUNCTION     0.00     0.00   907.00     0  00:00        0.00
  3087                 JUNCTION     0.00     0.00   913.00     0  00:00        0.00
  3088                 JUNCTION     0.00     0.00   916.25     0  00:00        0.00
  3089                 JUNCTION     0.00     0.00   917.77     0  00:00        0.00
  3090                 JUNCTION     0.00     0.00   918.00     0  00:00        0.00
  3091                 JUNCTION     0.00     0.00   905.66     0  00:00        0.00
  3092                 JUNCTION     0.00     0.00   904.16     0  00:00        0.00
  3093                 JUNCTION     0.00     0.00   918.73     0  00:00        0.00
  3094                 JUNCTION     0.00     0.00   919.08     0  00:00        0.00
  3095                 JUNCTION     0.00     0.00   919.48     0  00:00        0.00
  3096                 JUNCTION     0.00     0.00   920.21     0  00:00        0.00
  3097                 JUNCTION     0.00     0.00   920.90     0  00:00        0.00
  3098                 JUNCTION     0.00     0.00   922.60     0  00:00        0.00
  3099                 JUNCTION     0.00     0.00   920.72     0  00:00        0.00
  3100                 JUNCTION     0.00     0.00   902.53     0  00:00        0.00
  3101                 JUNCTION     0.00     0.00   901.75     0  00:00        0.00
  3102                 JUNCTION     0.00     0.00   900.69     0  00:00        0.00
  3103                 JUNCTION     0.00     0.00   889.21     0  00:00        0.00
  3104                 JUNCTION     0.00     0.00   858.50     0  00:00        0.00
  3105                 JUNCTION     0.00     0.00   858.34     0  00:00        0.00
  3106                 JUNCTION     0.00     0.00   858.25     0  00:00        0.00
  3107                 JUNCTION     0.00     0.00   858.66     0  00:00        0.00
  3108                 JUNCTION     0.00     0.00   858.79     0  00:00        0.00
  3109                 JUNCTION     0.00     0.00   826.12     0  00:00        0.00
  3110                 JUNCTION     0.00     0.00   832.34     0  00:00        0.00
  3111                 JUNCTION     0.00     0.00   833.32     0  00:00        0.00
  3112                 JUNCTION     0.00     0.00   834.92     0  00:00        0.00
  3113                 JUNCTION     0.00     0.00   836.51     0  00:00        0.00
  3114                 JUNCTION     0.00     0.00   838.11     0  00:00        0.00
  3115                 JUNCTION     0.00     0.00   838.91     0  00:00        0.00
  3123                 JUNCTION     0.00     0.00   901.60     0  00:00        0.00
  3124                 JUNCTION     0.00     0.00   899.94     0  00:00        0.00
  3125                 JUNCTION     0.00     0.00   908.09     0  00:00        0.00
  3126                 JUNCTION     0.00     0.00   908.80     0  00:00        0.00
  3127                 JUNCTION     0.00     0.00   909.60     0  00:00        0.00
  3128                 JUNCTION     0.00     0.00   910.80     0  00:00        0.00
  3129                 JUNCTION     0.00     0.00   916.61     0  00:00        0.00
  3130                 JUNCTION     0.00     0.00   921.07     0  00:00        0.00
  3131                 JUNCTION     0.00     0.00   901.61     0  00:00        0.00
  3132                 JUNCTION     0.00     0.00   905.25     0  00:00        0.00
  3133                 JUNCTION     0.00     0.00   907.53     0  00:00        0.00
  3134                 JUNCTION     0.00     0.00   908.13     0  00:00        0.00
  3135                 JUNCTION     0.00     0.00   909.10     0  00:00        0.00
  3136                 JUNCTION     0.00     0.00   910.36     0  00:00        0.00
  3137                 JUNCTION     0.00     0.00   888.32     0  00:00        0.00
  3138                 JUNCTION     0.00     0.00   867.00     0  00:00        0.00
  3139                 JUNCTION     0.00     0.00   867.84     0  00:00        0.00
  3140                 JUNCTION     0.00     0.00   889.10     0  00:00        0.00
  3141                 JUNCTION     0.00     0.00   890.36     0  00:00        0.00
  3142                 JUNCTION     0.00     0.00   891.50     0  00:00        0.00
  3143                 JUNCTION     0.00     0.00   892.76     0  00:00        0.00
  3144                 JUNCTION     0.00     0.00   899.39     0  00:00        0.00
  3145                 JUNCTION     0.00     0.00   893.87     0  00:00        0.00
  3146                 JUNCTION     0.00     0.00   895.00     0  00:00        0.00
  3147                 JUNCTION     0.00     0.00   895.68     0  00:00        0.00
  3148                 JUNCTION     0.00     0.00   867.85     0  00:00        0.00
  3149                 JUNCTION     0.00     0.00   829.55     0  00:00        0.00
  3150                 JUNCTION     0.00     0.00   829.79     0  00:00        0.00
  3151                 JUNCTION     0.00     0.00   830.84     0  00:00        0.00
  3152                 JUNCTION     0.00     0.00   831.07     0  00:00        0.00
  3153                 JUNCTION     0.00     0.00   831.47     0  00:00        0.00
  3154                 JUNCTION     0.00     0.00   831.61     0  00:00        0.00
  3155                 JUNCTION     0.00     0.00   831.91     0  00:00        0.00
  3156                 JUNCTION     0.00     0.00   832.15     0  00:00        0.00
  3157                 JUNCTION     0.00     0.00   832.44     0  00:00        0.00
  3158                 JUNCTION     0.00     0.00   832.84     0  00:00        0.00
  3159                 JUNCTION     0.00     0.00   833.24     0  00:00        0.00
  3160                 JUNCTION     0.00     0.00   833.56     0  00:00        0.00
  3161                 JUNCTION     0.00     0.00   833.74     0  00:00        0.00
  3162                 JUNCTION     0.00     0.00   847.00     0  00:00        0.00
  3163                 JUNCTION     0.00     0.00   863.05     0  00:00        0.00
  3164                 JUNCTION     0.00     0.00   877.61     0  00:00        0.00
  3165                 JUNCTION     0.00     0.00   890.52     0  00:00        0.00
  3166                 JUNCTION     0.00     0.00   892.41     0  00:00        0.00
  3167                 JUNCTION     0.00     0.00   894.36     0  00:00        0.00
  3168                 JUNCTION     0.00     0.00   895.95     0  00:00        0.00
  3169                 JUNCTION     0.00     0.00   937.86     0  00:00        0.00
  3170                 JUNCTION     0.00     0.00   937.51     0  00:00        0.00
  3171                 JUNCTION     0.00     0.00   938.26     0  00:00        0.00
  3172                 JUNCTION     0.00     0.00   938.48     0  00:00        0.00
  3173                 JUNCTION     0.00     0.00   939.21     0  00:00        0.00
  3174                 JUNCTION     0.00     0.00   939.94     0  00:00        0.00
  3175                 JUNCTION     0.00     0.00   940.39     0  00:00        0.00
  3176                 JUNCTION     0.00     0.00   940.79     0  00:00        0.00
  3177                 JUNCTION     0.00     0.00   944.96     0  00:00        0.00
  3178                 JUNCTION     0.00     0.00   944.71     0  00:00        0.00
  3179                 JUNCTION     0.00     0.00   943.11     0  00:00        0.00
  3180                 JUNCTION     0.00     0.00   943.93     0  00:00        0.00
  3181                 JUNCTION     0.00     0.00   945.37     0  00:00        0.00
  3182                 JUNCTION     0.00     0.00   947.93     0  00:00        0.00
  3183                 JUNCTION     0.00     0.00   948.35     0  00:00        0.00
  3184                 JUNCTION     0.00     0.00   951.35     0  00:00        0.00
  3185                 JUNCTION     0.00     0.00   952.40     0  00:00        0.00
  3187                 JUNCTION     0.00     0.00   924.14     0  00:00        0.00
  3188                 JUNCTION     0.00     0.00   923.64     0  00:00        0.00
  3189                 JUNCTION     0.00     0.00   925.58     0  00:00        0.00
  3190                 JUNCTION     0.00     0.00   926.88     0  00:00        0.00
  3191                 JUNCTION     0.00     0.00   927.05     0  00:00        0.00
  3192                 JUNCTION     0.00     0.00   927.44     0  00:00        0.00
  3193                 JUNCTION     0.00     0.00   928.95     0  00:00        0.00
  3194                 JUNCTION     0.00     0.00   927.12     0  00:00        0.00
  3195                 JUNCTION     0.00     0.00   926.55     0  00:00        0.00
  3196                 JUNCTION     0.00     0.00   925.75     0  00:00        0.00
  3197                 JUNCTION     0.00     0.00   925.05     0  00:00        0.00
  3198                 JUNCTION     0.00     0.00   924.66     0  00:00        0.00
  3199                 JUNCTION     0.00     0.00   924.21     0  00:00        0.00
  3200                 JUNCTION     0.00     0.00   923.78     0  00:00        0.00
  3201                 JUNCTION     0.00     0.00   923.34     0  00:00        0.00
  3202                 JUNCTION     0.00     0.00   922.83     0  00:00        0.00
  3203                 JUNCTION     0.00     0.00   922.38     0  00:00        0.00
  3204                 JUNCTION     0.00     0.00   922.10     0  00:00        0.00
  3205                 JUNCTION     0.00     0.00   921.47     0  00:00        0.00
  3206                 JUNCTION     0.00     0.00   920.75     0  00:00        0.00
  3207                 JUNCTION     0.00     0.00   931.14     0  00:00        0.00
  3208                 JUNCTION     0.00     0.00   930.78     0  00:00        0.00
  3209                 JUNCTION     0.00     0.00   931.50     0  00:00        0.00
  3210                 JUNCTION     0.00     0.00   929.83     0  00:00        0.00
  3211                 JUNCTION     0.00     0.00   930.02     0  00:00        0.00
  3212                 JUNCTION     0.00     0.00   930.93     0  00:00        0.00
  3213                 JUNCTION     0.00     0.00   931.46     0  00:00        0.00
  3214                 JUNCTION     0.00     0.00   932.00     0  00:00        0.00
  3215                 JUNCTION     0.00     0.00   933.30     0  00:00        0.00
  3216                 JUNCTION     0.00     0.00   933.98     0  00:00        0.00
  3217                 JUNCTION     0.00     0.00   926.82     0  00:00        0.00
  3218                 JUNCTION     0.00     0.00   932.58     0  00:00        0.00
  3219                 JUNCTION     0.00     0.00   931.31     0  00:00        0.00
  3220                 JUNCTION     0.00     0.00   932.40     0  00:00        0.00
  3221                 JUNCTION     0.00     0.00   928.34     0  00:00        0.00
  3222                 JUNCTION     0.00     0.00   928.88     0  00:00        0.00
  3223                 JUNCTION     0.00     0.00   928.35     0  00:00        0.00
  3224                 JUNCTION     0.00     0.00   927.67     0  00:00        0.00
  3225                 JUNCTION     0.00     0.00   929.09     0  00:00        0.00
  3226                 JUNCTION     0.00     0.00   930.52     0  00:00        0.00
  3227                 JUNCTION     0.00     0.00   932.28     0  00:00        0.00
  3228                 JUNCTION     0.00     0.00   932.86     0  00:00        0.00
  3229                 JUNCTION     0.00     0.00   933.45     0  00:00        0.00
  3230                 JUNCTION     0.00     0.00   934.95     0  00:00        0.00
  3231                 JUNCTION     0.00     0.00   928.46     0  00:00        0.00
  3232                 JUNCTION     0.00     0.00   929.96     0  00:00        0.00
  3233                 JUNCTION     0.00     0.00   930.77     0  00:00        0.00
  3234                 JUNCTION     0.00     0.00   931.41     0  00:00        0.00
  3235                 JUNCTION     0.00     0.00   932.29     0  00:00        0.00
  3236                 JUNCTION     0.00     0.00   933.50     0  00:00        0.00
  3237                 JUNCTION     0.00     0.00   929.78     0  00:00        0.00
  3238                 JUNCTION     0.00     0.00   931.13     0  00:00        0.00
  3239                 JUNCTION     0.00     0.00   931.68     0  00:00        0.00
  3240                 JUNCTION     0.00     0.00   932.24     0  00:00        0.00
  3241                 JUNCTION     0.00     0.00   933.34     0  00:00        0.00
  3242                 JUNCTION     0.00     0.00   934.09     0  00:00        0.00
  3243                 JUNCTION     0.00     0.00   934.31     0  00:00        0.00
  3244                 JUNCTION     0.00     0.00   930.74     0  00:00        0.00
  3245                 JUNCTION     0.00     0.00   928.95     0  00:00        0.00
  3246                 JUNCTION     0.00     0.00   929.38     0  00:00        0.00
  3247                 JUNCTION     0.00     0.00   929.91     0  00:00        0.00
  3248                 JUNCTION     0.00     0.00   931.36     0  00:00        0.00
  3249                 JUNCTION     0.00     0.00   932.76     0  00:00        0.00
  3250                 JUNCTION     0.00     0.00   932.24     0  00:00        0.00
  3251                 JUNCTION     0.00     0.00   931.13     0  00:00        0.00
  3252                 JUNCTION     0.00     0.00   932.98     0  00:00        0.00
  3253                 JUNCTION     0.00     0.00   930.97     0  00:00        0.00
  3254                 JUNCTION     0.00     0.00   931.84     0  00:00        0.00
  3255                 JUNCTION     0.00     0.00   932.82     0  00:00        0.00
  3256                 JUNCTION     0.00     0.00   933.45     0  00:00        0.00
  3257                 JUNCTION     0.00     0.00   930.65     0  00:00        0.00
  3258                 JUNCTION     0.00     0.00   931.30     0  00:00        0.00
  3259                 JUNCTION     0.00     0.00   928.31     0  00:00        0.00
  3260                 JUNCTION     0.00     0.00   923.65     0  00:00        0.00
  3261                 JUNCTION     0.00     0.00   925.69     0  00:00        0.00
  3262                 JUNCTION     0.00     0.00   928.18     0  00:00        0.00
  3263                 JUNCTION     0.00     0.00   935.00     0  00:00        0.00
  3264                 JUNCTION     0.00     0.00   927.64     0  00:00        0.00
  3265                 JUNCTION     0.00     0.00   928.89     0  00:00        0.00
  3266                 JUNCTION     0.00     0.00   929.71     0  00:00        0.00
  3267                 JUNCTION     0.00     0.00   931.02     0  00:00        0.00
  3268                 JUNCTION     0.00     0.00   931.42     0  00:00        0.00
  3269                 JUNCTION     0.00     0.00   931.90     0  00:00        0.00
  3270                 JUNCTION     0.00     0.00   932.90     0  00:00        0.00
  3271                 JUNCTION     0.00     0.00   933.80     0  00:00        0.00
  3272                 JUNCTION     0.00     0.00   933.80     0  00:00        0.00
  3273                 JUNCTION     0.00     0.00   922.76     0  00:00        0.00
  3274                 JUNCTION     0.00     0.00   926.99     0  00:00        0.00
  3275                 JUNCTION     0.00     0.00   928.33     0  00:00        0.00
  3276                 JUNCTION     0.00     0.00   921.46     0  00:00        0.00
  3277                 JUNCTION     0.00     0.00   931.34     0  00:00        0.00
  3278                 JUNCTION     0.00     0.00   933.06     0  00:00        0.00
  3279                 JUNCTION     0.00     0.00   935.50     0  00:00        0.00
  3280                 JUNCTION     0.00     0.00   934.15     0  00:00        0.00
  3281                 JUNCTION     0.00     0.00   935.38     0  00:00        0.00
  3282                 JUNCTION     0.00     0.00   920.31     0  00:00        0.00
  3283                 JUNCTION     0.00     0.00   916.79     0  00:00        0.00
  3284                 JUNCTION     0.00     0.00   906.95     0  00:00        0.00
  3285                 JUNCTION     0.00     0.00   903.97     0  00:00        0.00
  3286                 JUNCTION     0.00     0.00   901.81     0  00:00        0.00
  3287                 JUNCTION     0.00     0.00   898.20     0  00:00        0.00
  3288                 JUNCTION     0.00     0.00   898.31     0  00:00        0.00
  3289                 JUNCTION     0.00     0.00   899.63     0  00:00        0.00
  3290                 JUNCTION     0.00     0.00   900.58     0  00:00        0.00
  3291                 JUNCTION     0.00     0.00   901.11     0  00:00        0.00
  3292                 JUNCTION     0.00     0.00   902.30     0  00:00        0.00
  3293                 JUNCTION     0.00     0.00   901.70     0  00:00        0.00
  3294                 JUNCTION     0.00     0.00   903.85     0  00:00        0.00
  3295                 JUNCTION     0.00     0.00   905.56     0  00:00        0.00
  3296                 JUNCTION     0.00     0.00   907.27     0  00:00        0.00
  3297                 JUNCTION     0.00     0.00   901.65     0  00:00        0.00
  3298                 JUNCTION     0.00     0.00   916.07     0  00:00        0.00
  3299                 JUNCTION     0.00     0.00   931.24     0  00:00        0.00
  3300                 JUNCTION     0.00     0.00   930.00     0  00:00        0.00
  3301                 JUNCTION     0.00     0.00   928.69     0  00:00        0.00
  3302                 JUNCTION     0.00     0.00   919.45     0  00:00        0.00
  3303                 JUNCTION     0.00     0.00   922.92     0  00:00        0.00
  3304                 JUNCTION     0.00     0.00   922.92     0  00:00        0.00
  3305                 JUNCTION     0.00     0.00   923.93     0  00:00        0.00
  3306                 JUNCTION     0.00     0.00   924.91     0  00:00        0.00
  3307                 JUNCTION     0.00     0.00   926.44     0  00:00        0.00
  3308                 JUNCTION     0.00     0.00   928.04     0  00:00        0.00
  3309                 JUNCTION     0.00     0.00   926.26     0  00:00        0.00
  3310                 JUNCTION     0.00     0.00   926.46     0  00:00        0.00
  3311                 JUNCTION     0.00     0.00   927.68     0  00:00        0.00
  3312                 JUNCTION     0.00     0.00   928.50     0  00:00        0.00
  3313                 JUNCTION     0.00     0.00   930.28     0  00:00        0.00
  3314                 JUNCTION     0.00     0.00   932.21     0  00:00        0.00
  3315                 JUNCTION     0.00     0.00   934.36     0  00:00        0.00
  3316                 JUNCTION     0.00     0.00   939.18     0  00:00        0.00
  3317                 JUNCTION     0.00     0.00   941.00     0  00:00        0.00
  3318                 JUNCTION     0.00     0.00   918.60     0  00:00        0.00
  3319                 JUNCTION     0.00     0.00   918.77     0  00:00        0.00
  3320                 JUNCTION     0.00     0.00   917.40     0  00:00        0.00
  3321                 JUNCTION     0.00     0.00   909.42     0  00:00        0.00
  3322                 JUNCTION     0.00     0.00   915.48     0  00:00        0.00
  3323                 JUNCTION     0.00     0.00   916.00     0  00:00        0.00
  3324                 JUNCTION     0.00     0.00   921.58     0  00:00        0.00
  3325                 JUNCTION     0.00     0.00   914.76     0  00:00        0.00
  3326                 JUNCTION     0.00     0.00   915.67     0  00:00        0.00
  3327                 JUNCTION     0.00     0.00   916.42     0  00:00        0.00
  3328                 JUNCTION     0.00     0.00   920.13     0  00:00        0.00
  3329                 JUNCTION     0.00     0.00   912.33     0  00:00        0.00
  3330                 JUNCTION     0.00     0.00   910.33     0  00:00        0.00
  3331                 JUNCTION     0.00     0.00   910.33     0  00:00        0.00
  3332                 JUNCTION     0.00     0.00   908.45     0  00:00        0.00
  3333                 JUNCTION     0.00     0.00   909.40     0  00:00        0.00
  3334                 JUNCTION     0.00     0.00   835.85     0  00:00        0.00
  3335                 JUNCTION     0.00     0.00   835.21     0  00:00        0.00
  3336                 JUNCTION     0.00     0.00   834.63     0  00:00        0.00
  3337                 JUNCTION     0.00     0.00   907.18     0  00:00        0.00
  3338                 JUNCTION     0.00     0.00   922.25     0  00:00        0.00
  3339                 JUNCTION     0.00     0.00   923.13     0  00:00        0.00
  3340                 JUNCTION     0.00     0.00   905.41     0  00:00        0.00
  3341                 JUNCTION     0.00     0.00   903.64     0  00:00        0.00
  3342                 JUNCTION     0.00     0.00   827.75     0  00:00        0.00
  3343                 JUNCTION     0.00     0.00   904.17     0  00:00        0.00
  3344                 JUNCTION     0.00     0.00   902.92     0  00:00        0.00
  3345                 JUNCTION     0.00     0.00   905.25     0  00:00        0.00
  3346                 JUNCTION     0.00     0.00   898.82     0  00:00        0.00
  3347                 JUNCTION     0.00     0.00   939.75     0  00:00        0.00
  3348                 JUNCTION     0.00     0.00   938.90     0  00:00        0.00
  3349                 JUNCTION     0.00     0.00   938.05     0  00:00        0.00
  3350                 JUNCTION     0.00     0.00   936.28     0  00:00        0.00
  3351                 JUNCTION     0.00     0.00   934.74     0  00:00        0.00
  3352                 JUNCTION     0.00     0.00   934.43     0  00:00        0.00
  3353                 JUNCTION     0.00     0.00   933.86     0  00:00        0.00
  3354                 JUNCTION     0.00     0.00   933.29     0  00:00        0.00
  3355                 JUNCTION     0.00     0.00   932.72     0  00:00        0.00
  3356                 JUNCTION     0.00     0.00   932.00     0  00:00        0.00
  3357                 JUNCTION     0.00     0.00   935.01     0  00:00        0.00
  3358                 JUNCTION     0.00     0.00   935.46     0  00:00        0.00
  3359                 JUNCTION     0.00     0.00   936.06     0  00:00        0.00
  3360                 JUNCTION     0.00     0.00   936.61     0  00:00        0.00
  3361                 JUNCTION     0.00     0.00   937.15     0  00:00        0.00
  3362                 JUNCTION     0.00     0.00   934.84     0  00:00        0.00
  3363                 JUNCTION     0.00     0.00   937.10     0  00:00        0.00
  3364                 JUNCTION     0.00     0.00   937.41     0  00:00        0.00
  3365                 JUNCTION     0.00     0.00   902.93     0  00:00        0.00
  3366                 JUNCTION     0.00     0.00   904.98     0  00:00        0.00
  3367                 JUNCTION     0.00     0.00   905.48     0  00:00        0.00
  3368                 JUNCTION     0.00     0.00   905.64     0  00:00        0.00
  3369                 JUNCTION     0.00     0.00   906.73     0  00:00        0.00
  3370                 JUNCTION     0.00     0.00   907.49     0  00:00        0.00
  3371                 JUNCTION     0.00     0.00   906.12     0  00:00        0.00
  3372                 JUNCTION     0.00     0.00   908.91     0  00:00        0.00
  3373                 JUNCTION     0.00     0.00   910.61     0  00:00        0.00
  3374                 JUNCTION     0.00     0.00   911.65     0  00:00        0.00
  3375                 JUNCTION     0.00     0.00   912.65     0  00:00        0.00
  3376                 JUNCTION     0.00     0.00   916.08     0  00:00        0.00
  3377                 JUNCTION     0.00     0.00   929.87     0  00:00        0.00
  3378                 JUNCTION     0.00     0.00   919.92     0  00:00        0.00
  3379                 JUNCTION     0.00     0.00   913.41     0  00:00        0.00
  3380                 JUNCTION     0.00     0.00   913.91     0  00:00        0.00
  3381                 JUNCTION     0.00     0.00   923.00     0  00:00        0.00
  3382                 JUNCTION     0.00     0.00   933.71     0  00:00        0.00
  3383                 JUNCTION     0.00     0.00   945.68     0  00:00        0.00
  3384                 JUNCTION     0.00     0.00   947.23     0  00:00        0.00
  3385                 JUNCTION     0.00     0.00   948.15     0  00:00        0.00
  3386                 JUNCTION     0.00     0.00   956.33     0  00:00        0.00
  3387                 JUNCTION     0.00     0.00   955.20     0  00:00        0.00
  3388                 JUNCTION     0.00     0.00   953.94     0  00:00        0.00
  3389                 JUNCTION     0.00     0.00   953.06     0  00:00        0.00
  3390                 JUNCTION     0.00     0.00   952.40     0  00:00        0.00
  3391                 JUNCTION     0.00     0.00   951.28     0  00:00        0.00
  3392                 JUNCTION     0.00     0.00   950.39     0  00:00        0.00
  3393                 JUNCTION     0.00     0.00   949.33     0  00:00        0.00
  3394                 JUNCTION     0.00     0.00   914.58     0  00:00        0.00
  3395                 JUNCTION     0.00     0.00   915.28     0  00:00        0.00
  3396                 JUNCTION     0.00     0.00   917.94     0  00:00        0.00
  3397                 JUNCTION     0.00     0.00   919.30     0  00:00        0.00
  3398                 JUNCTION     0.00     0.00   920.14     0  00:00        0.00
  3399                 JUNCTION     0.00     0.00   925.09     0  00:00        0.00
  3400                 JUNCTION     0.00     0.00   933.66     0  00:00        0.00
  3401                 JUNCTION     0.00     0.00   945.15     0  00:00        0.00
  3402                 JUNCTION     0.00     0.00   946.65     0  00:00        0.00
  3403                 JUNCTION     0.00     0.00   946.65     0  00:00        0.00
  3404                 JUNCTION     0.00     0.00   915.06     0  00:00        0.00
  3405                 JUNCTION     0.00     0.00   915.78     0  00:00        0.00
  3406                 JUNCTION     0.00     0.00   916.07     0  00:00        0.00
  3407                 JUNCTION     0.00     0.00   919.54     0  00:00        0.00
  3408                 JUNCTION     0.00     0.00   916.28     0  00:00        0.00
  3409                 JUNCTION     0.00     0.00   925.00     0  00:00        0.00
  3410                 JUNCTION     0.00     0.00   940.69     0  00:00        0.00
  3411                 JUNCTION     0.00     0.00   939.13     0  00:00        0.00
  3412                 JUNCTION     0.00     0.00   940.93     0  00:00        0.00
  3413                 JUNCTION     0.00     0.00   946.71     0  00:00        0.00
  3414                 JUNCTION     0.00     0.00   944.31     0  00:00        0.00
  3415                 JUNCTION     0.00     0.00   909.58     0  00:00        0.00
  3416                 JUNCTION     0.00     0.00   914.49     0  00:00        0.00
  3417                 JUNCTION     0.00     0.00   928.33     0  00:00        0.00
  3418                 JUNCTION     0.00     0.00   930.83     0  00:00        0.00
  3419                 JUNCTION     0.00     0.00   931.76     0  00:00        0.00
  3420                 JUNCTION     0.00     0.00   933.58     0  00:00        0.00
  3421                 JUNCTION     0.00     0.00   936.16     0  00:00        0.00
  3422                 JUNCTION     0.00     0.00   936.60     0  00:00        0.00
  3423                 JUNCTION     0.00     0.00   940.36     0  00:00        0.00
  3424                 JUNCTION     0.00     0.00   947.11     0  00:00        0.00
  3425                 JUNCTION     0.00     0.00   945.27     0  00:00        0.00
  3426                 JUNCTION     0.00     0.00   946.79     0  00:00        0.00
  3427                 JUNCTION     0.00     0.00   945.64     0  00:00        0.00
  3428                 JUNCTION     0.00     0.00   946.39     0  00:00        0.00
  3429                 JUNCTION     0.00     0.00   947.48     0  00:00        0.00
  3430                 JUNCTION     0.00     0.00   949.15     0  00:00        0.00
  3431                 JUNCTION     0.00     0.00   934.01     0  00:00        0.00
  3432                 JUNCTION     0.00     0.00   934.59     0  00:00        0.00
  3433                 JUNCTION     0.00     0.00   935.52     0  00:00        0.00
  3434                 JUNCTION     0.00     0.00   936.04     0  00:00        0.00
  3435                 JUNCTION     0.00     0.00   936.26     0  00:00        0.00
  3436                 JUNCTION     0.00     0.00   936.29     0  00:00        0.00
  3437                 JUNCTION     0.00     0.00   936.77     0  00:00        0.00
  3438                 JUNCTION     0.00     0.00   947.16     0  00:00        0.00
  3439                 JUNCTION     0.00     0.00   948.17     0  00:00        0.00
  3440                 JUNCTION     0.00     0.00   951.70     0  00:00        0.00
  3441                 JUNCTION     0.00     0.00   948.45     0  00:00        0.00
  3442                 JUNCTION     0.00     0.00   950.35     0  00:00        0.00
  3443                 JUNCTION     0.00     0.00   951.87     0  00:00        0.00
  3444                 JUNCTION     0.00     0.00   953.19     0  00:00        0.00
  3445                 JUNCTION     0.00     0.00   953.85     0  00:00        0.00
  3446                 JUNCTION     0.00     0.00   954.49     0  00:00        0.00
  3447                 JUNCTION     0.00     0.00   956.97     0  00:00        0.00
  3448                 JUNCTION     0.00     0.00   957.95     0  00:00        0.00
  3449                 JUNCTION     0.00     0.00   957.72     0  00:00        0.00
  3450                 JUNCTION     0.00     0.00   958.35     0  00:00        0.00
  3451                 JUNCTION     0.00     0.00   903.55     0  00:00        0.00
  3452                 JUNCTION     0.00     0.00   903.73     0  00:00        0.00
  3453                 JUNCTION     0.00     0.00   904.48     0  00:00        0.00
  3454                 JUNCTION     0.00     0.00   908.26     0  00:00        0.00
  3455                 JUNCTION     0.00     0.00   911.75     0  00:00        0.00
  3456                 JUNCTION     0.00     0.00   919.00     0  00:00        0.00
  3457                 JUNCTION     0.00     0.00   921.75     0  00:00        0.00
  3458                 JUNCTION     0.00     0.00   923.69     0  00:00        0.00
  3459                 JUNCTION     0.00     0.00   923.00     0  00:00        0.00
  3460                 JUNCTION     0.00     0.00   923.75     0  00:00        0.00
  3461                 JUNCTION     0.00     0.00   924.36     0  00:00        0.00
  3462                 JUNCTION     0.00     0.00   931.24     0  00:00        0.00
  3463                 JUNCTION     0.00     0.00   917.09     0  00:00        0.00
  3464                 JUNCTION     0.00     0.00   918.17     0  00:00        0.00
  3465                 JUNCTION     0.00     0.00   918.80     0  00:00        0.00
  3466                 JUNCTION     0.00     0.00   919.71     0  00:00        0.00
  3467                 JUNCTION     0.00     0.00   923.59     0  00:00        0.00
  3468                 JUNCTION     0.00     0.00   936.97     0  00:00        0.00
  3469                 JUNCTION     0.00     0.00   938.41     0  00:00        0.00
  3470                 JUNCTION     0.00     0.00   943.80     0  00:00        0.00
  3471                 JUNCTION     0.00     0.00   945.46     0  00:00        0.00
  3472                 JUNCTION     0.00     0.00   934.58     0  00:00        0.00
  3473                 JUNCTION     0.00     0.00   933.48     0  00:00        0.00
  3474                 JUNCTION     0.00     0.00   932.49     0  00:00        0.00
  3475                 JUNCTION     0.00     0.00   931.53     0  00:00        0.00
  3476                 JUNCTION     0.00     0.00   930.32     0  00:00        0.00
  3477                 JUNCTION     0.00     0.00   933.00     0  00:00        0.00
  3478                 JUNCTION     0.00     0.00   934.37     0  00:00        0.00
  3479                 JUNCTION     0.00     0.00   941.00     0  00:00        0.00
  3480                 JUNCTION     0.00     0.00   940.04     0  00:00        0.00
  3481                 JUNCTION     0.00     0.00   946.00     0  00:00        0.00
  3482                 JUNCTION     0.00     0.00   933.41     0  00:00        0.00
  3483                 JUNCTION     0.00     0.00   934.59     0  00:00        0.00
  3484                 JUNCTION     0.00     0.00   935.45     0  00:00        0.00
  3485                 JUNCTION     0.00     0.00   936.95     0  00:00        0.00
  3486                 JUNCTION     0.00     0.00   937.96     0  00:00        0.00
  3487                 JUNCTION     0.00     0.00   941.45     0  00:00        0.00
  3488                 JUNCTION     0.00     0.00   928.72     0  00:00        0.00
  3489                 JUNCTION     0.00     0.00   924.74     0  00:00        0.00
  3490                 JUNCTION     0.00     0.00   925.38     0  00:00        0.00
  3491                 JUNCTION     0.00     0.00   925.76     0  00:00        0.00
  3492                 JUNCTION     0.00     0.00   926.50     0  00:00        0.00
  3493                 JUNCTION     0.00     0.00   926.96     0  00:00        0.00
  3494                 JUNCTION     0.00     0.00   927.16     0  00:00        0.00
  3495                 JUNCTION     0.00     0.00   927.68     0  00:00        0.00
  3496                 JUNCTION     0.00     0.00   928.80     0  00:00        0.00
  3497                 JUNCTION     0.00     0.00   922.96     0  00:00        0.00
  3498                 JUNCTION     0.00     0.00   933.50     0  00:00        0.00
  3499                 JUNCTION     0.00     0.00   930.17     0  00:00        0.00
  3500                 JUNCTION     0.00     0.00   930.71     0  00:00        0.00
  3501                 JUNCTION     0.00     0.00   930.65     0  00:00        0.00
  3502                 JUNCTION     0.00     0.00   932.66     0  00:00        0.00
  3503                 JUNCTION     0.00     0.00   928.21     0  00:00        0.00
  3504                 JUNCTION     0.00     0.00   929.12     0  00:00        0.00
  3505                 JUNCTION     0.00     0.00   931.50     0  00:00        0.00
  3506                 JUNCTION     0.00     0.00   932.41     0  00:00        0.00
  3507                 JUNCTION     0.00     0.00   932.95     0  00:00        0.00
  3508                 JUNCTION     0.00     0.00   928.16     0  00:00        0.00
  3509                 JUNCTION     0.00     0.00   934.53     0  00:00        0.00
  3510                 JUNCTION     0.00     0.00   935.60     0  00:00        0.00
  3511                 JUNCTION     0.00     0.00   931.22     0  00:00        0.00
  3512                 JUNCTION     0.00     0.00   942.76     0  00:00        0.00
  3513                 JUNCTION     0.00     0.00   933.24     0  00:00        0.00
[...]
  9809                    1.00   1.00  0.00  0.00  0.00  0.00  0.00  0.00  0.00  0.00
  9810                    1.00   1.00  0.00  0.00  0.00  0.00  0.00  0.00  0.00  0.00
  9811                    1.00   1.00  0.00  0.00  0.00  0.00  0.00  0.00  0.00  0.00
  9812                    1.00   1.00  0.00  0.00  0.00  0.00  0.00  0.00  0.00  0.00
  9813                    1.00   1.00  0.00  0.00  0.00  0.00  0.00  0.00  0.00  0.00
  9814                    1.00   1.00  0.00  0.00  0.00  0.00  0.00  0.00  0.00  0.00
  9815                    1.00   1.00  0.00  0.00  0.00  0.00  0.00  0.00  0.00  0.00
  9816                    1.00   1.00  0.00  0.00  0.00  0.00  0.00  0.00  0.00  0.00
  9817                    1.00   1.00  0.00  0.00  0.00  0.00  0.00  0.00  0.00  0.00
  9818                    1.00   1.00  0.00  0.00  0.00  0.00  0.00  0.00  0.00  0.00
  9819                    1.00   1.00  0.00  0.00  0.00  0.00  0.00  0.00  0.00  0.00
  9820                    1.00   1.00  0.00  0.00  0.00  0.00  0.00  0.00  0.00  0.00
  9821                    1.00   1.00  0.00  0.00  0.00  0.00  0.00  0.00  0.00  0.00
  9822                    1.00   1.00  0.00  0.00  0.00  0.00  0.00  0.00  0.00  0.00
  9823                    1.00   1.00  0.00  0.00  0.00  0.00  0.00  0.00  0.00  0.00
  9824                    1.00   1.00  0.00  0.00  0.00  0.00  0.00  0.00  0.00  0.00
  9825                    1.00   1.00  0.00  0.00  0.00  0.00  0.00  0.00  0.00  0.00
  9826                    1.00   1.00  0.00  0.00  0.00  0.00  0.00  0.00  0.00  0.00
  9827                    1.00   1.00  0.00  0.00  0.00  0.00  0.00  0.00  0.00  0.00
  9828                    1.00   1.00  0.00  0.00  0.00  0.00  0.00  0.00  0.00  0.00
  9829                    1.00   1.00  0.00  0.00  0.00  0.00  0.00  0.00  0.00  0.00
  9830                    1.00   1.00  0.00  0.00  0.00  0.00  0.00  0.00  0.00  0.00
  9831                    1.00   1.00  0.00  0.00  0.00  0.00  0.00  0.00  0.00  0.00
  9832                    1.00   1.00  0.00  0.00  0.00  0.00  0.00  0.00  0.00  0.00
  9833                    1.00   1.00  0.00  0.00  0.00  0.00  0.00  0.00  0.00  0.00
  9834                    1.00   1.00  0.00  0.00  0.00  0.00  0.00  0.00  0.00  0.00
  9835                    1.00   1.00  0.00  0.00  0.00  0.00  0.00  0.00  0.00  0.00
  9836                    1.00   1.00  0.00  0.00  0.00  0.00  0.00  0.00  0.00  0.00
  9837                    1.00   1.00  0.00  0.00  0.00  0.00  0.00  0.00  0.00  0.00
  9838                    1.00   1.00  0.00  0.00  0.00  0.00  0.00  0.00  0.00  0.00
  9839                    1.00   1.00  0.00  0.00  0.00  0.00  0.00  0.00  0.00  0.00
  9840                    1.00   1.00  0.00  0.00  0.00  0.00  0.00  0.00  0.00  0.00
  9841                    1.00   1.00  0.00  0.00  0.00  0.00  0.00  0.00  0.00  0.00
  9842                    1.00   1.00  0.00  0.00  0.00  0.00  0.00  0.00  0.00  0.00
  9843                    1.00   1.00  0.00  0.00  0.00  0.00  0.00  0.00  0.00  0.00
  9844                    1.00   1.00  0.00  0.00  0.00  0.00  0.00  0.00  0.00  0.00
  9845                    1.00   1.00  0.00  0.00  0.00  0.00  0.00  0.00  0.00  0.00
  9846                    1.00   1.00  0.00  0.00  0.00  0.00  0.00  0.00  0.00  0.00
  9847                    1.00   1.00  0.00  0.00  0.00  0.00  0.00  0.00  0.00  0.00
  9848                    1.00   1.00  0.00  0.00  0.00  0.00  0.00  0.00  0.00  0.00
  9849                    1.00   1.00  0.00  0.00  0.00  0.00  0.00  0.00  0.00  0.00
  9850                    1.00   1.00  0.00  0.00  0.00  0.00  0.00  0.00  0.00  0.00
  9851                    1.00   1.00  0.00  0.00  0.00  0.00  0.00  0.00  0.00  0.00
  9852                    1.00   1.00  0.00  0.00  0.00  0.00  0.00  0.00  0.00  0.00
  9853                    1.00   1.00  0.00  0.00  0.00  0.00  0.00  0.00  0.00  0.00
  9854                    1.00   1.00  0.00  0.00  0.00  0.00  0.00  0.00  0.00  0.00
  9855                    1.00   1.00  0.00  0.00  0.00  0.00  0.00  0.00  0.00  0.00
  9856                    1.00   1.00  0.00  0.00  0.00  0.00  0.00  0.00  0.00  0.00
  9857                    1.00   1.00  0.00  0.00  0.00  0.00  0.00  0.00  0.00  0.00
  9858                    1.00   1.00  0.00  0.00  0.00  0.00  0.00  0.00  0.00  0.00
  9859                    1.00   1.00  0.00  0.00  0.00  0.00  0.00  0.00  0.00  0.00
  9860                    1.00   1.00  0.00  0.00  0.00  0.00  0.00  0.00  0.00  0.00
  9861                    1.00   1.00  0.00  0.00  0.00  0.00  0.00  0.00  0.00  0.00
  9862                    1.00   1.00  0.00  0.00  0.00  0.00  0.00  0.00  0.00  0.00
  9863                    1.00   1.00  0.00  0.00  0.00  0.00  0.00  0.00  0.00  0.00
  9864                    1.00   1.00  0.00  0.00  0.00  0.00  0.00  0.00  0.00  0.00
  9865                    1.00   1.00  0.00  0.00  0.00  0.00  0.00  0.00  0.00  0.00
  9866                    1.00   1.00  0.00  0.00  0.00  0.00  0.00  0.00  0.00  0.00
  9867                    1.00   1.00  0.00  0.00  0.00  0.00  0.00  0.00  0.00  0.00
  9868                    1.00   1.00  0.00  0.00  0.00  0.00  0.00  0.00  0.00  0.00
  9869                    1.00   1.00  0.00  0.00  0.00  0.00  0.00  0.00  0.00  0.00
  9870                    1.00   1.00  0.00  0.00  0.00  0.00  0.00  0.00  0.00  0.00
  9871                    1.00   1.00  0.00  0.00  0.00  0.00  0.00  0.00  0.00  0.00
  9872                    1.00   1.00  0.00  0.00  0.00  0.00  0.00  0.00  0.00  0.00
  9873                    1.00   1.00  0.00  0.00  0.00  0.00  0.00  0.00  0.00  0.00
  9874                    1.00   1.00  0.00  0.00  0.00  0.00  0.00  0.00  0.00  0.00
  9875                    1.00   1.00  0.00  0.00  0.00  0.00  0.00  0.00  0.00  0.00
  9876                    1.00   1.00  0.00  0.00  0.00  0.00  0.00  0.00  0.00  0.00
  9877                    1.00   1.00  0.00  0.00  0.00  0.00  0.00  0.00  0.00  0.00
  9878                    1.00   1.00  0.00  0.00  0.00  0.00  0.00  0.00  0.00  0.00
  9879                    1.00   1.00  0.00  0.00  0.00  0.00  0.00  0.00  0.00  0.00
  9880                    1.00   1.00  0.00  0.00  0.00  0.00  0.00  0.00  0.00  0.00
  9881                    1.00   1.00  0.00  0.00  0.00  0.00  0.00  0.00  0.00  0.00
  9882                    1.00   1.00  0.00  0.00  0.00  0.00  0.00  0.00  0.00  0.00
  9883                    1.00   1.00  0.00  0.00  0.00  0.00  0.00  0.00  0.00  0.00
  9884                    1.00   1.00  0.00  0.00  0.00  0.00  0.00  0.00  0.00  0.00
  9885                    1.00   1.00  0.00  0.00  0.00  0.00  0.00  0.00  0.00  0.00
  9886                    1.00   1.00  0.00  0.00  0.00  0.00  0.00  0.00  0.00  0.00
  9887                    1.00   1.00  0.00  0.00  0.00  0.00  0.00  0.00  0.00  0.00
  9888                    1.00   1.00  0.00  0.00  0.00  0.00  0.00  0.00  0.00  0.00
  9889                    1.00   1.00  0.00  0.00  0.00  0.00  0.00  0.00  0.00  0.00
  9890                    1.00   1.00  0.00  0.00  0.00  0.00  0.00  0.00  0.00  0.00
  9891                    1.00   1.00  0.00  0.00  0.00  0.00  0.00  0.00  0.00  0.00
  9892                    1.00   1.00  0.00  0.00  0.00  0.00  0.00  0.00  0.00  0.00
  9893                    1.00   1.00  0.00  0.00  0.00  0.00  0.00  0.00  0.00  0.00
  9894                    1.00   1.00  0.00  0.00  0.00  0.00  0.00  0.00  0.00  0.00
  9895                    1.00   1.00  0.00  0.00  0.00  0.00  0.00  0.00  0.00  0.00
  9896                    1.00   1.00  0.00  0.00  0.00  0.00  0.00  0.00  0.00  0.00
  9897                    1.00   1.00  0.00  0.00  0.00  0.00  0.00  0.00  0.00  0.00
  9898                    1.00   1.00  0.00  0.00  0.00  0.00  0.00  0.00  0.00  0.00
  9899                    1.00   1.00  0.00  0.00  0.00  0.00  0.00  0.00  0.00  0.00
  9900                    1.00   1.00  0.00  0.00  0.00  0.00  0.00  0.00  0.00  0.00
  9901                    1.00   1.00  0.00  0.00  0.00  0.00  0.00  0.00  0.00  0.00
  9902                    1.00   1.00  0.00  0.00  0.00  0.00  0.00  0.00  0.00  0.00
  9903                    1.00   1.00  0.00  0.00  0.00  0.00  0.00  0.00  0.00  0.00
  9904                    1.00   1.00  0.00  0.00  0.00  0.00  0.00  0.00  0.00  0.00
  9905                    1.00   1.00  0.00  0.00  0.00  0.00  0.00  0.00  0.00  0.00
  9906                    1.00   1.00  0.00  0.00  0.00  0.00  0.00  0.00  0.00  0.00
  9907                    1.00   1.00  0.00  0.00  0.00  0.00  0.00  0.00  0.00  0.00
  9908                    1.00   1.00  0.00  0.00  0.00  0.00  0.00  0.00  0.00  0.00
  9909                    1.00   1.00  0.00  0.00  0.00  0.00  0.00  0.00  0.00  0.00
  9910                    1.00   1.00  0.00  0.00  0.00  0.00  0.00  0.00  0.00  0.00
  9911                    1.00   1.00  0.00  0.00  0.00  0.00  0.00  0.00  0.00  0.00
  9912                    1.00   1.00  0.00  0.00  0.00  0.00  0.00  0.00  0.00  0.00
  9913                    1.00   1.00  0.00  0.00  0.00  0.00  0.00  0.00  0.00  0.00
  9914                    1.00   1.00  0.00  0.00  0.00  0.00  0.00  0.00  0.00  0.00
  9915                    1.00   1.00  0.00  0.00  0.00  0.00  0.00  0.00  0.00  0.00
  9916                    1.00   1.00  0.00  0.00  0.00  0.00  0.00  0.00  0.00  0.00
  9917                    1.00   1.00  0.00  0.00  0.00  0.00  0.00  0.00  0.00  0.00
  9918                    1.00   1.00  0.00  0.00  0.00  0.00  0.00  0.00  0.00  0.00
  9919                    1.00   1.00  0.00  0.00  0.00  0.00  0.00  0.00  0.00  0.00
  9920                    1.00   1.00  0.00  0.00  0.00  0.00  0.00  0.00  0.00  0.00
  9921                    1.00   1.00  0.00  0.00  0.00  0.00  0.00  0.00  0.00  0.00
  9922                    1.00   1.00  0.00  0.00  0.00  0.00  0.00  0.00  0.00  0.00
  9923                    1.00   1.00  0.00  0.00  0.00  0.00  0.00  0.00  0.00  0.00
  9924                    1.00   1.00  0.00  0.00  0.00  0.00  0.00  0.00  0.00  0.00
  9925                    1.00   1.00  0.00  0.00  0.00  0.00  0.00  0.00  0.00  0.00
  9926                    1.00   1.00  0.00  0.00  0.00  0.00  0.00  0.00  0.00  0.00
  9927                    1.00   1.00  0.00  0.00  0.00  0.00  0.00  0.00  0.00  0.00
  9928                    1.00   1.00  0.00  0.00  0.00  0.00  0.00  0.00  0.00  0.00
  9929                    3.89   1.00  0.00  0.00  0.00  0.00  0.00  0.00  0.00  0.00
  9934                    1.00   1.00  0.00  0.00  0.00  0.00  0.00  0.00  0.00  0.00
  9935                    1.00   1.00  0.00  0.00  0.00  0.00  0.00  0.00  0.00  0.00
  9936                    1.00   1.00  0.00  0.00  0.00  0.00  0.00  0.00  0.00  0.00
  9937                    1.00   1.00  0.00  0.00  0.00  0.00  0.00  0.00  0.00  0.00
  9938                    1.00   1.00  0.00  0.00  0.00  0.00  0.00  0.00  0.00  0.00
  9939                    1.00   1.00  0.00  0.00  0.00  0.00  0.00  0.00  0.00  0.00
  9940                    1.00   1.00  0.00  0.00  0.00  0.00  0.00  0.00  0.00  0.00
  9941                    1.00   1.00  0.00  0.00  0.00  0.00  0.00  0.00  0.00  0.00
  9942                    1.00   1.00  0.00  0.00  0.00  0.00  0.00  0.00  0.00  0.00
  9943                    1.00   1.00  0.00  0.00  0.00  0.00  0.00  0.00  0.00  0.00
  9944                    1.00   1.00  0.00  0.00  0.00  0.00  0.00  0.00  0.00  0.00
  9945                    1.62   1.00  0.00  0.00  0.00  0.00  0.00  0.00  0.00  0.00
  9946                    1.00   1.00  0.00  0.00  0.00  0.00  0.00  0.00  0.00  0.00
  9947                    1.00   1.00  0.00  0.00  0.00  0.00  0.00  0.00  0.00  0.00
  9948                    1.00   1.00  0.00  0.00  0.00  0.00  0.00  0.00  0.00  0.00
  9949                    1.00   1.00  0.00  0.00  0.00  0.00  0.00  0.00  0.00  0.00
  9950                    1.00   1.00  0.00  0.00  0.00  0.00  0.00  0.00  0.00  0.00
  9951                    1.00   1.00  0.00  0.00  0.00  0.00  0.00  0.00  0.00  0.00
  9952                    1.00   1.00  0.00  0.00  0.00  0.00  0.00  0.00  0.00  0.00
  9953                    1.00   1.00  0.00  0.00  0.00  0.00  0.00  0.00  0.00  0.00
  9954                    1.00   1.00  0.00  0.00  0.00  0.00  0.00  0.00  0.00  0.00
  9955                    1.00   1.00  0.00  0.00  0.00  0.00  0.00  0.00  0.00  0.00
  9956                    1.00   1.00  0.00  0.00  0.00  0.00  0.00  0.00  0.00  0.00
  9957                    1.00   1.00  0.00  0.00  0.00  0.00  0.00  0.00  0.00  0.00
  9958                    1.00   1.00  0.00  0.00  0.00  0.00  0.00  0.00  0.00  0.00
  9959                    1.00   1.00  0.00  0.00  0.00  0.00  0.00  0.00  0.00  0.00
  9960                    1.00   1.00  0.00  0.00  0.00  0.00  0.00  0.00  0.00  0.00
  9961                    1.00   1.00  0.00  0.00  0.00  0.00  0.00  0.00  0.00  0.00
  9962                    1.00   1.00  0.00  0.00  0.00  0.00  0.00  0.00  0.00  0.00
  9963                    1.00   1.00  0.00  0.00  0.00  0.00  0.00  0.00  0.00  0.00
  9964                    1.00   1.00  0.00  0.00  0.00  0.00  0.00  0.00  0.00  0.00
  9965                    1.00   1.00  0.00  0.00  0.00  0.00  0.00  0.00  0.00  0.00
  9966                    1.00   1.00  0.00  0.00  0.00  0.00  0.00  0.00  0.00  0.00
  9967                    1.00   1.00  0.00  0.00  0.00  0.00  0.00  0.00  0.00  0.00
  9968                    1.00   1.00  0.00  0.00  0.00  0.00  0.00  0.00  0.00  0.00
  9969                    1.00   1.00  0.00  0.00  0.00  0.00  0.00  0.00  0.00  0.00
  9970                    1.00   1.00  0.00  0.00  0.00  0.00  0.00  0.00  0.00  0.00
  9971                    1.00   1.00  0.00  0.00  0.00  0.00  0.00  0.00  0.00  0.00
  9972                    1.00   1.00  0.00  0.00  0.00  0.00  0.00  0.00  0.00  0.00
  9973                    1.00   1.00  0.00  0.00  0.00  0.00  0.00  0.00  0.00  0.00
  9974                    1.00   1.00  0.00  0.00  0.00  0.00  0.00  0.00  0.00  0.00
  9975                    1.00   1.00  0.00  0.00  0.00  0.00  0.00  0.00  0.00  0.00
  9976                    1.00   1.00  0.00  0.00  0.00  0.00  0.00  0.00  0.00  0.00
  9977                    1.00   1.00  0.00  0.00  0.00  0.00  0.00  0.00  0.00  0.00
  9978                    1.00   1.00  0.00  0.00  0.00  0.00  0.00  0.00  0.00  0.00
  9979                    1.00   1.00  0.00  0.00  0.00  0.00  0.00  0.00  0.00  0.00
  9980                    1.00   1.00  0.00  0.00  0.00  0.00  0.00  0.00  0.00  0.00
  9981                    1.00   1.00  0.00  0.00  0.00  0.00  0.00  0.00  0.00  0.00
  9982                    1.00   1.00  0.00  0.00  0.00  0.00  0.00  0.00  0.00  0.00
  9983                    1.00   1.00  0.00  0.00  0.00  0.00  0.00  0.00  0.00  0.00
  9984                    1.00   1.00  0.00  0.00  0.00  0.00  0.00  0.00  0.00  0.00
  9985                    1.00   1.00  0.00  0.00  0.00  0.00  0.00  0.00  0.00  0.00
  9986                    1.00   1.00  0.00  0.00  0.00  0.00  0.00  0.00  0.00  0.00
  9987                    1.00   1.00  0.00  0.00  0.00  0.00  0.00  0.00  0.00  0.00
  9988                    1.00   1.00  0.00  0.00  0.00  0.00  0.00  0.00  0.00  0.00
  9989                    1.00   1.00  0.00  0.00  0.00  0.00  0.00  0.00  0.00  0.00
  9990                    1.00   1.00  0.00  0.00  0.00  0.00  0.00  0.00  0.00  0.00
  9991                    1.00   1.00  0.00  0.00  0.00  0.00  0.00  0.00  0.00  0.00
  9992                    1.00   1.00  0.00  0.00  0.00  0.00  0.00  0.00  0.00  0.00
  9993                    1.00   1.00  0.00  0.00  0.00  0.00  0.00  0.00  0.00  0.00
  9994                    1.00   1.00  0.00  0.00  0.00  0.00  0.00  0.00  0.00  0.00
  9995                    1.00   1.00  0.00  0.00  0.00  0.00  0.00  0.00  0.00  0.00
  9996                    1.00   1.00  0.00  0.00  0.00  0.00  0.00  0.00  0.00  0.00
  9997                    1.00   1.00  0.00  0.00  0.00  0.00  0.00  0.00  0.00  0.00
  9998                    1.00   1.00  0.00  0.00  0.00  0.00  0.00  0.00  0.00  0.00
  9999                    1.00   1.00  0.00  0.00  0.00  0.00  0.00  0.00  0.00  0.00
  
  
  *************************
  Conduit Surcharge Summary
  *************************
  
  No conduits were surcharged.
  
  
  ***************
  Pumping Summary
  ***************
  
  ---------------------------------------------------------------------------------------------------------
                                                  Min       Avg       Max     Total     Power    % Time Off
                        Percent   Number of      Flow      Flow      Flow    Volume     Usage    Pump Curve
  Pump                 Utilized   Start-Ups       GPM       GPM       GPM  10^6 gal     Kw-hr    Low   High
  ---------------------------------------------------------------------------------------------------------
  LS-10_P1                 0.00           0      0.00      0.00      0.00     0.000      0.00    0.0    0.0
  LS-10_P2                 0.00           0      0.00      0.00      0.00     0.000      0.00    0.0    0.0
  LS-11_P1                 0.00           0      0.00      0.00      0.00     0.000      0.00    0.0    0.0
  LS-11_P2                 0.00           0      0.00      0.00      0.00     0.000      0.00    0.0    0.0
  LS-12_P1                 0.00           0      0.00      0.00      0.00     0.000      0.00    0.0    0.0
  LS-12_P2                 0.00           0      0.00      0.00      0.00     0.000      0.00    0.0    0.0
  LS-13_P1                 0.00           0      0.00      0.00      0.00     0.000      0.00    0.0    0.0
  LS-13_P2                 0.00           0      0.00      0.00      0.00     0.000      0.00    0.0    0.0
  LS-16_P1                 0.00           0      0.00      0.00      0.00     0.000      0.00    0.0    0.0
  LS-16_P2                 0.00           0      0.00      0.00      0.00     0.000      0.00    0.0    0.0
  LS-17_P1                 0.00           0      0.00      0.00      0.00     0.000      0.00    0.0    0.0
  LS-17_P2                 0.00           0      0.00      0.00      0.00     0.000      0.00    0.0    0.0
  LS-1_P1                  0.00           0      0.00      0.00      0.00     0.000      0.00    0.0    0.0
  LS-1_P2                  0.00           0      0.00      0.00      0.00     0.000      0.00    0.0    0.0
  LS-2_P1                  0.00           0      0.00      0.00      0.00     0.000      0.00    0.0    0.0
  LS-2_P2                  0.00           0      0.00      0.00      0.00     0.000      0.00    0.0    0.0
  LS-5_P1                  0.00           0      0.00      0.00      0.00     0.000      0.00    0.0    0.0
  LS-5_P2                  0.00           0      0.00      0.00      0.00     0.000      0.00    0.0    0.0
  LS-6_P1                  0.00           0      0.00      0.00      0.00     0.000      0.00    0.0    0.0
  LS-6_P2                  0.00           0      0.00      0.00      0.00     0.000      0.00    0.0    0.0
  LS-7_P1                  0.00           0      0.00      0.00      0.00     0.000      0.00    0.0    0.0
  LS-7_P2                  0.00           0      0.00      0.00      0.00     0.000      0.00    0.0    0.0
  LS-8_P1                  0.00           0      0.00      0.00      0.00     0.000      0.00    0.0    0.0
  LS-8_P2                  0.00           0      0.00      0.00      0.00     0.000      0.00    0.0    0.0
  LS-9_P1                  0.00           0      0.00      0.00      0.00     0.000      0.00    0.0    0.0
  LS-9_P2                  0.00           0      0.00      0.00      0.00     0.000      0.00    0.0    0.0
  LS_P1                    0.00           0      0.00      0.00      0.00     0.000      0.00    0.0    0.0
  LS_P2                    0.00           0      0.00      0.00      0.00     0.000      0.00    0.0    0.0
  

  Analysis begun on:  Wed Jun 24 15:09:55 2026
  Analysis ended on:  Wed Jun 24 15:09:55 2026
  Total elapsed time: < 1 sec