
  EPA STORM WATER MANAGEMENT MODEL - VERSION 5.2 (Build 5.2.4)
  ------------------------------------------------------------

  WARNING 04: minimum elevation drop used for Conduit P-1353
  WARNING 02: maximum depth increased for Node S-407
  WARNING 02: maximum depth increased for Node S-42
  WARNING 02: maximum depth increased for Node S-569
  WARNING 02: maximum depth increased for Node S-615
  WARNING 02: maximum depth increased for Node S-700
  WARNING 02: maximum depth increased for Node S-701
  
  ****************
  Analysis Options
  ****************
  Flow Units ............... LPS
  Process Models:
    Rainfall/Runoff ........ NO
    RDII ................... NO
    Snowmelt ............... NO
    Groundwater ............ NO
    Flow Routing ........... YES
    Ponding Allowed ........ NO
    Water Quality .......... NO
  Flow Routing Method ...... DYNWAVE
  Surcharge Method ......... EXTRAN
  Starting Date ............ 01/01/2002 00:00:00
  Ending Date .............. 01/01/2002 12:00:00
  Antecedent Dry Days ...... 5.0
  Report Time Step ......... 00:05:00
  Routing Time Step ........ 300.00 sec
  Variable Time Step ....... YES
  Maximum Trials ........... 8
  Number of Threads ........ 1
  Head Tolerance ........... 0.001500 m
  
  
  ERROR 141: Outfall S-1 has more than 1 inlet link or an outlet link.

  Analysis begun on:  Wed Jun 24 15:09:55 2026
  Analysis ended on:  Wed Jun 24 15:09:55 2026
  Total elapsed time: < 1 sec