
  EPA STORM WATER MANAGEMENT MODEL - VERSION 5.2 (Build 5.2.4)
  ------------------------------------------------------------

  WARNING 08: elevation drop exceeds length for Conduit C197
  WARNING 04: minimum elevation drop used for Conduit C224
  WARNING 04: minimum elevation drop used for Conduit C275
  WARNING 08: elevation drop exceeds length for Conduit C292
  WARNING 08: elevation drop exceeds length for Conduit C293
  WARNING 02: maximum depth increased for Node N100
  WARNING 02: maximum depth increased for Node N101
  WARNING 02: maximum depth increased for Node N102
  WARNING 02: maximum depth increased for Node N149
  WARNING 02: maximum depth increased for Node N251
  WARNING 02: maximum depth increased for Node N252
  WARNING 02: maximum depth increased for Node N253
  WARNING 02: maximum depth increased for Node N257
  WARNING 02: maximum depth increased for Node N261
  WARNING 02: maximum depth increased for Node N265
  WARNING 02: maximum depth increased for Node N27
  WARNING 02: maximum depth increased for Node N77
  WARNING 02: maximum depth increased for Node N83
  WARNING 02: maximum depth increased for Node N89
  WARNING 02: maximum depth increased for Node N90
  WARNING 02: maximum depth increased for Node N93
  WARNING 02: maximum depth increased for Node N94
  WARNING 02: maximum depth increased for Node N95
  WARNING 02: maximum depth increased for Node N96
  WARNING 02: maximum depth increased for Node N97
  
  ****************
  Analysis Options
  ****************
  Flow Units ............... CFS
  Process Models:
    Rainfall/Runoff ........ YES
    RDII ................... NO
    Snowmelt ............... NO
    Groundwater ............ NO
    Flow Routing ........... YES
    Ponding Allowed ........ YES
    Water Quality .......... NO
  Infiltration Method ...... HORTON
  Flow Routing Method ...... DYNWAVE
  Surcharge Method ......... EXTRAN
  Starting Date ............ 01/01/2002 00:00:00
  Ending Date .............. 01/02/2002 00:00:00
  Antecedent Dry Days ...... 5.0
  Report Time Step ......... 00:01:00
  Wet Time Step ............ 00:05:00
  Dry Time Step ............ 01:00:00
  Routing Time Step ........ 10.00 sec
  Variable Time Step ....... YES
  Maximum Trials ........... 8
  Number of Threads ........ 1
  Head Tolerance ........... 0.000100 ft
  
  
  **************************        Volume         Depth
  Runoff Quantity Continuity     acre-feet        inches
  **************************     ---------       -------
  Total Precipitation ......       681.689         7.000
  Evaporation Loss .........         0.000         0.000
  Infiltration Loss ........       392.512         4.031
  Surface Runoff ...........       289.313         2.971
  Final Storage ............         0.000         0.000
  Continuity Error (%) .....        -0.020
  
  
  **************************        Volume        Volume
  Flow Routing Continuity        acre-feet      10^6 gal
  **************************     ---------     ---------
  Dry Weather Inflow .......         0.000         0.000
  Wet Weather Inflow .......       289.271        94.263
  Groundwater Inflow .......         0.000         0.000
  RDII Inflow ..............         0.000         0.000
  External Inflow ..........         0.000         0.000
  External Outflow .........       137.702        44.872
  Flooding Loss ............       140.926        45.923
  Evaporation Loss .........         0.000         0.000
  Exfiltration Loss ........         0.000         0.000
  Initial Stored Volume ....         0.000         0.000
  Final Stored Volume ......        11.692         3.810
  Continuity Error (%) .....        -0.362
  
  
  *************************
  Highest Continuity Errors
  *************************
  Node N264 (29.29%)
  Node N21 (-2.01%)
  Node N13 (-1.48%)
  Node N169 (1.16%)
  
  
  ***************************
  Time-Step Critical Elements
  ***************************
  Link C276 (53.56%)
  Link C158 (9.32%)
  Link C172 (5.23%)
  Link C179 (3.90%)
  Link C271 (2.20%)
  
  
  ********************************
  Highest Flow Instability Indexes
  ********************************
  Link C197 (6)
  Link C275 (6)
  Link WEIR-149 (4)
  Link C274 (2)
  Link C149 (2)
  
  
  *********************************
  Most Frequent Nonconverging Nodes
  *********************************
  Node JCT-174 (93.41%)
  Node JCT-204 (93.41%)
  Node JCT-244 (93.41%)
  Node JCT-246 (93.41%)
  Node JCT-250 (93.41%)
  
  
  *************************
  Routing Time Step Summary
  *************************
  Minimum Time Step           :     0.43 sec
  Average Time Step           :     6.52 sec
  Maximum Time Step           :    10.00 sec
  % of Time in Steady State   :     0.00
  Average Iterations per Step :     7.64
  % of Steps Not Converging   :    93.41
  Time Step Frequencies       :
     10.000 -  1.585 sec      :    98.52 %
      1.585 -  0.251 sec      :     1.48 %
      0.251 -  0.040 sec      :     0.00 %
      0.040 -  0.006 sec      :     0.00 %
      0.006 -  0.001 sec      :     0.00 %
  
  
  ***************************
  Subcatchment Runoff Summary
  ***************************
  
  ------------------------------------------------------------------------------------------------------------------------------
                            Total      Total      Total      Total     Imperv       Perv      Total       Total     Peak  Runoff
                           Precip      Runon       Evap      Infil     Runoff     Runoff     Runoff      Runoff   Runoff   Coeff
  Subcatchment                 in         in         in         in         in         in         in    10^6 gal      CFS
  ------------------------------------------------------------------------------------------------------------------------------
  W1                         7.00       0.00       0.00       3.93       0.00       3.07       3.07        1.51    22.04   0.438
  W10                        7.00       0.00       0.00       3.51       0.00       3.50       3.50        0.17     2.63   0.500
  W100                       7.00       0.00       0.00       3.49       0.00       3.51       3.51        0.15     2.34   0.502
  W101                       7.00       0.00       0.00       3.66       0.00       3.34       3.34        0.46     6.90   0.477
  W102                       7.00       0.00       0.00       3.59       0.00       3.41       3.41        0.30     4.58   0.488
  W103                       7.00       0.00       0.00       3.55       0.00       3.45       3.45        0.24     3.69   0.493
  W104                       7.00       0.00       0.00       3.46       0.00       3.55       3.55        0.12     1.74   0.507
  W105                       7.00       0.00       0.00       3.33       0.00       3.67       3.67        0.03     0.41   0.525
  W106                       7.00       0.00       0.00       3.34       0.00       3.66       3.66        0.03     0.51   0.523
  W107                       7.00       0.00       0.00       3.49       0.00       3.52       3.52        0.15     2.27   0.502
  W108                       7.00       0.00       0.00       3.33       0.00       3.67       3.67        0.03     0.42   0.525
  W109                       7.00       0.00       0.00       3.41       0.00       3.60       3.60        0.07     1.10   0.514
  W11                        7.00       0.00       0.00       3.46       0.00       3.54       3.54        0.12     1.82   0.506
  W110                       7.00       0.00       0.00       3.42       0.00       3.59       3.59        0.08     1.21   0.512
  W111                       7.00       0.00       0.00       3.57       0.00       3.43       3.43        0.28     4.20   0.490
  W112                       7.00       0.00       0.00       3.57       0.00       3.44       3.44        0.27     4.03   0.491
  W113                       7.00       0.00       0.00       3.49       0.00       3.52       3.52        0.15     2.24   0.502
  W114                       7.00       0.00       0.00       3.60       0.00       3.40       3.40        0.33     5.01   0.486
  W115                       7.00       0.00       0.00       3.40       0.00       3.61       3.61        0.07     0.99   0.515
  W116                       7.00       0.00       0.00       3.49       0.00       3.52       3.52        0.15     2.23   0.503
  W117                       7.00       0.00       0.00       3.50       0.00       3.50       3.50        0.16     2.47   0.501
  W118                       7.00       0.00       0.00       3.56       0.00       3.44       3.44        0.25     3.82   0.492
  W119                       7.00       0.00       0.00       3.34       0.00       3.66       3.66        0.03     0.51   0.523
  W12                        7.00       0.00       0.00       3.54       0.00       3.47       3.47        0.22     3.30   0.495
  W120                       7.00       0.00       0.00       3.53       0.00       3.47       3.47        0.21     3.15   0.496
  W121                       7.00       0.00       0.00       3.48       0.00       3.52       3.52        0.15     2.21   0.503
  W122                       7.00       0.00       0.00       3.52       0.00       3.48       3.48        0.19     2.92   0.498
  W123                       7.00       0.00       0.00       3.47       0.00       3.53       3.53        0.13     1.96   0.505
  W124                       7.00       0.00       0.00       3.53       0.00       3.48       3.48        0.20     3.04   0.497
  W125                       7.00       0.00       0.00       3.42       0.00       3.58       3.58        0.08     1.26   0.512
  W126                       7.00       0.00       0.00       3.56       0.00       3.44       3.44        0.25     3.80   0.492
  W127                       7.00       0.00       0.00       3.43       0.00       3.57       3.57        0.09     1.40   0.510
  W128                       7.00       0.00       0.00       3.52       0.00       3.48       3.48        0.20     2.96   0.497
  W129                       7.00       0.00       0.00       3.44       0.00       3.56       3.56        0.10     1.51   0.509
  W13                        7.00       0.00       0.00       3.97       0.00       3.03       3.03        1.74    25.23   0.432
  W14                        7.00       0.00       0.00       3.68       0.00       3.32       3.32        0.52     7.74   0.474
  W15                        7.00       0.00       0.00       3.37       0.00       3.64       3.64        0.05     0.70   0.519
  W16                        7.00       0.00       0.00       3.71       0.00       3.29       3.29        0.60     9.02   0.470
  W17                        7.00       0.00       0.00       3.61       0.00       3.39       3.39        0.35     5.20   0.485
  W18                        7.00       0.00       0.00       3.63       0.00       3.37       3.37        0.39     5.91   0.482
  W19                        7.00       0.00       0.00       3.56       0.00       3.44       3.44        0.26     3.94   0.491
  W2                         7.00       0.00       0.00       4.29       0.00       2.71       2.71        4.45    61.14   0.387
  W20                        7.00       0.00       0.00       3.69       0.00       3.31       3.31        0.54     8.13   0.473
  W21                        7.00       0.00       0.00       3.65       0.00       3.36       3.36        0.43     6.39   0.480
  W22                        7.00       0.00       0.00       4.08       0.00       2.93       2.93        2.42    34.56   0.418
  W23                        7.00       0.00       0.00       3.52       0.00       3.49       3.49        0.19     2.81   0.498
  W24                        7.00       0.00       0.00       3.76       0.00       3.25       3.25        0.74    10.96   0.464
  W25                        7.00       0.00       0.00       3.43       0.00       3.58       3.58        0.09     1.33   0.511
  W26                        7.00       0.00       0.00       3.47       0.00       3.53       3.53        0.13     2.01   0.504
  W27                        7.00       0.00       0.00       3.72       0.00       3.28       3.28        0.62     9.31   0.469
  W28                        7.00       0.00       0.00       3.54       0.00       3.46       3.46        0.23     3.47   0.494
  W29                        7.00       0.00       0.00       4.12       0.00       2.88       2.88        2.76    39.09   0.412
  W3                         7.00       0.00       0.00       3.80       0.00       3.20       3.20        0.91    13.40   0.457
  W30                        7.00       0.00       0.00       3.60       0.00       3.41       3.41        0.32     4.82   0.487
  W31                        7.00       0.00       0.00       3.86       0.00       3.14       3.14        1.16    17.04   0.448
  W32                        7.00       0.00       0.00       3.54       0.00       3.46       3.46        0.23     3.46   0.494
  W33                        7.00       0.00       0.00       3.84       0.00       3.17       3.17        1.04    15.33   0.452
  W34                        7.00       0.00       0.00       3.66       0.00       3.34       3.34        0.46     6.91   0.477
  W35                        7.00       0.00       0.00       3.57       0.00       3.43       3.43        0.27     4.10   0.490
  W36                        7.00       0.00       0.00       3.61       0.00       3.39       3.39        0.36     5.36   0.484
  W37                        7.00       0.00       0.00       4.15       0.00       2.85       2.85        3.03    42.77   0.407
  W38                        7.00       0.00       0.00       3.65       0.00       3.35       3.35        0.43     6.50   0.479
  W39                        7.00       0.00       0.00       3.69       0.00       3.31       3.31        0.53     7.93   0.474
  W4                         7.00       0.00       0.00       3.93       0.00       3.07       3.07        1.48    21.58   0.439
  W40                        7.00       0.00       0.00       4.19       0.00       2.81       2.81        3.43    48.00   0.401
  W41                        7.00       0.00       0.00       3.75       0.00       3.25       3.25        0.71    10.55   0.465
  W42                        7.00       0.00       0.00       3.68       0.00       3.32       3.32        0.52     7.74   0.474
  W43                        7.00       0.00       0.00       3.79       0.00       3.22       3.22        0.84    12.51   0.459
  W44                        7.00       0.00       0.00       3.52       0.00       3.48       3.48        0.20     2.97   0.497
  W45                        7.00       0.00       0.00       3.79       0.00       3.21       3.21        0.88    12.97   0.458
  W46                        7.00       0.00       0.00       3.99       0.00       3.01       3.01        1.85    26.82   0.430
  W47                        7.00       0.00       0.00       3.59       0.00       3.41       3.41        0.31     4.71   0.487
  W48                        7.00       0.00       0.00       3.68       0.00       3.32       3.32        0.50     7.54   0.475
  W49                        7.00       0.00       0.00       3.53       0.00       3.47       3.47        0.21     3.20   0.496
  W5                         7.00       0.00       0.00       4.04       0.00       2.97       2.97        2.14    30.69   0.424
  W50                        7.00       0.00       0.00       3.88       0.00       3.12       3.12        1.24    18.16   0.446
  W51                        7.00       0.00       0.00       3.57       0.00       3.43       3.43        0.27     4.05   0.491
  W52                        7.00       0.00       0.00       3.73       0.00       3.28       3.28        0.64     9.61   0.468
  W53                        7.00       0.00       0.00       3.63       0.00       3.37       3.37        0.39     5.92   0.482
  W54                        7.00       0.00       0.00       3.70       0.00       3.30       3.30        0.57     8.58   0.471
  W55                        7.00       0.00       0.00       3.60       0.00       3.40       3.40        0.33     4.90   0.486
  W56                        7.00       0.00       0.00       4.04       0.00       2.96       2.96        2.18    31.23   0.423
  W57                        7.00       0.00       0.00       3.48       0.00       3.52       3.52        0.14     2.12   0.503
  W58                        7.00       0.00       0.00       3.71       0.00       3.30       3.30        0.58     8.73   0.471
  W59                        7.00       0.00       0.00       3.65       0.00       3.36       3.36        0.43     6.40   0.479
  W6                         7.00       0.00       0.00       3.52       0.00       3.49       3.49        0.19     2.82   0.498
  W60                        7.00       0.00       0.00       3.60       0.00       3.40       3.40        0.33     4.95   0.486
  W61                        7.00       0.00       0.00       3.64       0.00       3.36       3.36        0.42     6.23   0.480
  W62                        7.00       0.00       0.00       3.61       0.00       3.39       3.39        0.35     5.31   0.484
  W63                        7.00       0.00       0.00       3.62       0.00       3.38       3.38        0.38     5.64   0.483
  W64                        7.00       0.00       0.00       3.67       0.00       3.33       3.33        0.48     7.25   0.476
  W65                        7.00       0.00       0.00       3.59       0.00       3.41       3.41        0.30     4.58   0.488
  W66                        7.00       0.00       0.00       3.63       0.00       3.38       3.38        0.38     5.76   0.482
  W67                        7.00       0.00       0.00       4.07       0.00       2.93       2.93        2.36    33.73   0.419
  W68                        7.00       0.00       0.00       3.58       0.00       3.43       3.43        0.28     4.25   0.490
  W69                        7.00       0.00       0.00       3.47       0.00       3.53       3.53        0.14     2.05   0.504
  W7                         7.00       0.00       0.00       3.94       0.00       3.06       3.06        1.55    22.62   0.437
  W70                        7.00       0.00       0.00       3.63       0.00       3.37       3.37        0.39     5.86   0.482
  W71                        7.00       0.00       0.00       3.64       0.00       3.37       3.37        0.40     6.04   0.481
  W72                        7.00       0.00       0.00       3.48       0.00       3.52       3.52        0.14     2.19   0.503
  W73                        7.00       0.00       0.00       3.50       0.00       3.51       3.51        0.16     2.41   0.501
  W74                        7.00       0.00       0.00       3.57       0.00       3.43       3.43        0.27     4.07   0.491
  W75                        7.00       0.00       0.00       3.58       0.00       3.42       3.42        0.30     4.49   0.488
  W76                        7.00       0.00       0.00       3.43       0.00       3.57       3.57        0.09     1.36   0.511
  W77                        7.00       0.00       0.00       4.05       0.00       2.95       2.95        2.23    32.02   0.422
  W78                        7.00       0.00       0.00       3.71       0.00       3.30       3.30        0.58     8.69   0.471
  W79                        7.00       0.00       0.00       3.51       0.00       3.50       3.50        0.18     2.65   0.499
  W8                         7.00       0.00       0.00       4.54       0.00       2.46       2.46        8.26   107.02   0.351
  W80                        7.00       0.00       0.00       3.55       0.00       3.45       3.45        0.24     3.59   0.493
  W81                        7.00       0.00       0.00       3.53       0.00       3.47       3.47        0.21     3.19   0.496
  W82                        7.00       0.00       0.00       3.59       0.00       3.41       3.41        0.31     4.67   0.487
  W83                        7.00       0.00       0.00       3.52       0.00       3.49       3.49        0.19     2.83   0.498
  W84                        7.00       0.00       0.00       3.49       0.00       3.51       3.51        0.16     2.37   0.501
  W85                        7.00       0.00       0.00       3.50       0.00       3.50       3.50        0.17     2.53   0.500
  W86                        7.00       0.00       0.00       4.42       0.00       2.58       2.58        6.15    82.12   0.369
  W87                        7.00       0.00       0.00       3.51       0.00       3.49       3.49        0.18     2.74   0.499
  W88                        7.00       0.00       0.00       3.76       0.00       3.24       3.24        0.76    11.35   0.463
  W89                        7.00       0.00       0.00       3.51       0.00       3.49       3.49        0.18     2.79   0.498
  W9                         7.00       0.00       0.00       3.90       0.00       3.11       3.11        1.31    19.24   0.444
  W90                        7.00       0.00       0.00       3.72       0.00       3.28       3.28        0.64     9.52   0.468
  W91                        7.00       0.00       0.00       3.54       0.00       3.46       3.46        0.23     3.44   0.494
  W92                        7.00       0.00       0.00       3.87       0.00       3.13       3.13        1.19    17.50   0.447
  W93                        7.00       0.00       0.00       3.80       0.00       3.21       3.21        0.88    13.05   0.458
  W94                        7.00       0.00       0.00       4.37       0.00       2.63       2.63        5.53    74.60   0.375
  W95                        7.00       0.00       0.00       3.96       0.00       3.05       3.05        1.63    23.64   0.435
  W96                        7.00       0.00       0.00       3.96       0.00       3.04       3.04        1.66    24.06   0.434
  W97                        7.00       0.00       0.00       3.56       0.00       3.44       3.44        0.25     3.81   0.492
  W98                        7.00       0.00       0.00       3.46       0.00       3.54       3.54        0.12     1.81   0.506
  W99                        7.00       0.00       0.00       3.31       0.00       3.69       3.69        0.02     0.30   0.528
  
  
  ******************
  Node Depth Summary
  ******************
  
  ---------------------------------------------------------------------------------
                                 Average  Maximum  Maximum  Time of Max    Reported
                                   Depth    Depth      HGL   Occurrence   Max Depth
  Node                 Type         Feet     Feet     Feet  days hr:min        Feet
  ---------------------------------------------------------------------------------
  N1                   JUNCTION     0.29     0.85  1245.92     0  05:17        0.85
  N10                  JUNCTION     0.86     2.01  1254.05     0  05:20        2.01
  N100                 JUNCTION     0.83     1.73  1339.55     0  05:17        1.73
  N101                 JUNCTION     0.63     1.26  1325.23     0  05:18        1.26
  N102                 JUNCTION     1.28     2.68  1316.44     0  05:21        2.68
  N103                 JUNCTION     1.37     2.43  1347.37     0  05:07        2.43
  N104                 JUNCTION     1.29     2.24  1342.21     0  05:07        2.24
  N105                 JUNCTION     0.12     0.49  1250.59     0  05:19        0.49
  N106                 JUNCTION     0.05     0.27  1264.18     0  05:01        0.27
  N107                 JUNCTION     0.00     0.00  1378.39     0  00:00        0.00
  N108                 JUNCTION     0.03     0.15  1376.47     0  05:00        0.15
  N109                 JUNCTION     0.03     0.14  1382.60     0  05:00        0.14
  N11                  JUNCTION     0.28     0.77  1253.34     0  05:19        0.77
  N110                 JUNCTION     0.02     0.09  1376.58     0  05:01        0.09
  N111                 JUNCTION     0.02     0.14  1368.27     0  05:00        0.14
  N112                 JUNCTION     0.04     0.23  1358.19     0  05:00        0.23
  N113                 JUNCTION     0.02     0.14  1379.22     0  05:00        0.14
  N114                 JUNCTION     0.18     0.66  1372.23     0  05:00        0.66
  N115                 JUNCTION     0.10     0.46  1372.07     0  05:00        0.46
  N116                 JUNCTION     0.08     0.39  1370.08     0  05:02        0.39
  N117                 JUNCTION     0.02     0.13  1370.05     0  05:06        0.13
  N118                 JUNCTION     0.02     0.10  1367.39     0  05:00        0.10
  N119                 JUNCTION     0.06     0.30  1355.99     0  05:01        0.30
  N12                  JUNCTION     0.34     0.93  1250.79     0  05:20        0.93
  N120                 JUNCTION     0.03     0.18  1356.08     0  05:01        0.18
  N121                 JUNCTION     0.04     0.24  1348.98     0  05:01        0.24
  N122                 JUNCTION     0.07     0.50  1348.45     0  05:03        0.50
  N123                 JUNCTION     0.05     0.21  1360.62     0  05:00        0.21
  N124                 JUNCTION     0.03     0.14  1357.22     0  05:02        0.14
  N125                 JUNCTION     0.04     0.23  1357.81     0  05:00        0.23
  N126                 JUNCTION     0.07     0.38  1357.36     0  05:00        0.38
  N127                 JUNCTION     0.04     0.24  1357.07     0  05:01        0.24
  N128                 JUNCTION     0.04     0.26  1356.67     0  05:00        0.26
  N129                 JUNCTION     0.04     0.20  1354.06     0  05:02        0.20
  N13                  JUNCTION     0.03     0.13  1255.41     0  05:00        0.13
  N130                 JUNCTION     0.04     0.21  1329.01     0  05:00        0.21
  N131                 JUNCTION     0.04     0.22  1313.08     0  05:00        0.22
  N132                 JUNCTION     0.04     0.21  1301.11     0  05:01        0.21
  N133                 JUNCTION     0.04     0.20  1282.57     0  05:01        0.20
  N134                 JUNCTION     0.04     0.21  1270.68     0  05:02        0.21
  N135                 JUNCTION     0.81     4.03  1219.82     0  05:03        4.03
  N136                 JUNCTION     1.70     4.17  1218.56     0  05:06        4.17
  N137                 JUNCTION     1.89     5.53  1362.71     0  05:00        5.53
  N138                 JUNCTION     2.25     5.11  1359.86     0  04:09        5.11
  N139                 JUNCTION     1.53     4.20  1357.21     0  05:01        3.84
  N14                  JUNCTION     0.06     0.26  1250.11     0  05:00        0.26
  N140                 JUNCTION     1.46     5.08  1357.23     0  05:01        3.55
  N141                 JUNCTION     0.07     0.59  1356.91     0  05:05        0.59
  N142                 JUNCTION     0.12     1.06  1356.70     0  05:05        1.06
  N143                 JUNCTION     0.07     0.74  1355.39     0  05:02        0.72
  N144                 JUNCTION     0.12     1.01  1354.46     0  05:11        1.00
  N145                 JUNCTION     0.09     0.59  1360.59     0  05:01        0.59
  N146                 JUNCTION     0.21     2.17  1344.87     0  05:03        2.17
  N147                 JUNCTION     0.30     4.27  1342.84     0  05:00        4.27
  N148                 JUNCTION     0.71     5.48  1341.63     0  04:43        5.48
  N149                 JUNCTION     0.09     0.49  1336.49     0  05:03        0.49
  N15                  JUNCTION     0.13     0.53  1252.58     0  05:01        0.53
  N150                 JUNCTION     0.27     3.02  1346.52     0  05:03        3.02
  N151                 JUNCTION     1.64     5.39  1232.39     0  05:10        5.39
  N152                 JUNCTION     1.49     4.24  1232.25     0  02:53        4.24
  N153                 JUNCTION     2.48     6.36  1223.80     0  05:10        6.36
  N154                 JUNCTION     2.42     5.42  1217.66     0  05:05        5.42
  N155                 JUNCTION     1.79     3.75  1219.60     0  05:08        3.75
  N156                 JUNCTION     1.98     4.09  1220.25     0  05:09        4.09
  N157                 JUNCTION     2.18     4.51  1220.84     0  05:10        4.51
  N158                 JUNCTION     1.29     5.02  1225.62     0  03:20        5.02
  N159                 JUNCTION     1.13     4.65  1228.05     0  05:09        4.65
  N16                  JUNCTION     0.23     0.74  1245.43     0  05:03        0.74
  N160                 JUNCTION     1.31     3.81  1247.81     0  05:19        3.81
  N161                 JUNCTION     2.14     5.38  1244.88     0  03:21        5.38
  N162                 JUNCTION     1.53     3.93  1248.95     0  05:20        3.93
  N163                 JUNCTION     0.65     2.27  1218.27     0  05:03        2.27
  N164                 JUNCTION     0.85     3.25  1220.25     0  05:03        3.25
  N165                 JUNCTION     1.01     4.00  1222.00     0  05:06        4.00
  N166                 JUNCTION     0.44     3.44  1222.10     0  05:10        3.44
  N167                 JUNCTION     0.12     1.16  1222.56     0  05:10        1.16
  N168                 JUNCTION     3.76     4.84  1364.23     0  04:26        4.84
  N169                 JUNCTION     2.34     3.99  1364.99     0  05:01        3.99
  N17                  JUNCTION     0.27     0.89  1239.03     0  05:04        0.89
  N170                 JUNCTION     1.52     5.02  1232.32     0  03:02        5.02
  N171                 JUNCTION     2.57     7.48  1234.85     0  02:43        7.48
  N172                 JUNCTION     2.33     5.48  1239.48     0  03:20        5.48
  N173                 JUNCTION     0.57     3.39  1219.86     0  05:03        3.39
  N174                 JUNCTION     0.76     3.90  1219.83     0  05:03        3.90
  N175                 JUNCTION     0.58     4.38  1237.52     0  04:51        4.38
  N176                 JUNCTION     0.65     4.51  1237.21     0  05:04        4.51
  N177                 JUNCTION     0.63     4.12  1225.09     0  05:04        4.12
  N178                 JUNCTION     1.55     7.60  1224.43     0  04:30        7.60
  N179                 JUNCTION     1.49     6.58  1220.85     0  04:37        6.58
  N18                  JUNCTION     0.28     0.90  1236.66     0  05:04        0.90
  N180                 JUNCTION     1.29     5.61  1220.62     0  04:18        5.61
  N181                 JUNCTION     1.33     5.61  1219.47     0  04:33        5.61
  N182                 JUNCTION     0.61     4.11  1225.37     0  05:04        4.11
  N183                 JUNCTION     1.21     5.51  1222.83     0  03:06        5.51
  N184                 JUNCTION     0.58     5.22  1239.34     0  05:00        5.22
  N185                 JUNCTION     0.36     4.22  1240.03     0  05:00        4.22
  N186                 JUNCTION     0.32     3.90  1240.25     0  05:00        3.90
  N187                 JUNCTION     0.13     0.62  1362.59     0  05:01        0.62
  N188                 JUNCTION     1.38     3.87  1354.74     0  05:06        3.87
  N189                 JUNCTION     1.91     4.32  1354.41     0  05:05        4.32
  N19                  JUNCTION     0.25     1.03  1233.80     0  05:07        1.03
  N190                 JUNCTION     2.24     4.64  1354.30     0  05:05        4.63
  N191                 JUNCTION  1149.33  1364.23  1364.23     0  04:12     1356.91
  N192                 JUNCTION     0.13     0.63  1368.75     0  05:02        0.63
  N193                 JUNCTION     0.17     0.84  1370.27     0  05:02        0.84
  N194                 JUNCTION     0.19     0.94  1372.17     0  05:01        0.94
  N195                 JUNCTION     0.15     0.78  1372.89     0  05:01        0.78
  N196                 JUNCTION     0.18     0.93  1351.89     0  05:02        0.93
  N197                 JUNCTION     0.16     0.77  1358.10     0  05:02        0.77
  N198                 JUNCTION     0.15     0.69  1340.90     0  05:02        0.69
  N199                 JUNCTION     0.39     2.22  1330.22     0  05:02        2.22
  N2                   JUNCTION     0.26     0.73  1243.63     0  05:15        0.73
  N20                  JUNCTION     0.04     0.17  1247.18     0  05:00        0.17
  N200                 JUNCTION     0.14     0.66  1327.66     0  05:03        0.66
  N201                 JUNCTION     0.21     1.11  1361.04     0  05:02        1.11
  N202                 JUNCTION     0.45     3.76  1366.29     0  05:03        3.75
  N203                 JUNCTION     0.54     5.35  1369.35     0  05:03        5.35
  N204                 JUNCTION     1.31     4.63  1232.63     0  02:45        4.63
  N205                 JUNCTION     1.18     4.53  1233.53     0  02:49        4.53
  N206                 JUNCTION     0.30     1.87  1374.95     0  05:00        1.87
  N207                 JUNCTION     0.44     2.96  1377.18     0  02:51        2.96
  N208                 JUNCTION     1.97     6.74  1235.87     0  02:43        6.44
  N209                 JUNCTION     0.40     2.09  1249.34     0  05:05        2.09
  N21                  JUNCTION     0.02     0.10  1245.90     0  05:01        0.10
  N210                 JUNCTION     0.50     3.00  1250.25     0  05:04        3.00
  N211                 JUNCTION     0.10     0.55  1255.05     0  05:03        0.55
  N212                 JUNCTION     0.41     1.50  1235.66     0  05:06        1.50
  N213                 JUNCTION     0.89     2.96  1237.26     0  05:14        2.96
  N214                 JUNCTION     0.49     2.26  1245.01     0  05:05        2.26
  N215                 JUNCTION     0.51     2.09  1246.84     0  05:05        2.09
  N216                 JUNCTION     0.42     1.68  1248.19     0  05:05        1.68
  N217                 JUNCTION     0.21     1.77  1351.04     0  05:02        1.77
  N218                 JUNCTION     0.32     1.95  1350.39     0  05:01        1.95
  N219                 JUNCTION     0.68     1.16  1350.66     0  05:06        1.16
  N22                  JUNCTION     0.14     0.67  1247.15     0  05:05        0.67
  N220                 JUNCTION     0.04     0.19  1350.19     0  05:02        0.19
  N221                 JUNCTION     0.04     0.20  1322.30     0  05:02        0.20
  N222                 JUNCTION     0.11     0.52  1261.18     0  05:02        0.52
  N223                 JUNCTION     1.78     3.81  1259.19     0  05:12        3.81
  N224                 JUNCTION     0.10     0.48  1274.47     0  05:02        0.48
  N225                 JUNCTION     0.09     0.45  1292.61     0  05:02        0.45
  N226                 JUNCTION     0.08     0.38  1304.76     0  05:01        0.38
  N227                 JUNCTION     0.07     0.32  1319.43     0  05:02        0.32
  N228                 JUNCTION     0.15     1.32  1351.82     0  05:01        1.32
  N229                 JUNCTION     0.09     0.50  1348.00     0  05:02        0.50
  N23                  JUNCTION     0.16     0.74  1240.08     0  05:05        0.74
  N230                 JUNCTION     0.23     1.24  1373.55     0  05:00        1.24
  N231                 JUNCTION     4.70     8.73  1372.23     0  06:11        8.73
  N232                 JUNCTION     1.30     5.20  1385.20     0  02:28        5.20
  N233                 JUNCTION     1.58     5.30  1380.30     0  02:26        5.30
  N234                 JUNCTION     2.46     7.69  1378.69     0  02:25        7.69
  N235                 JUNCTION     3.40     5.00  1370.00     0  02:27        5.00
  N236                 JUNCTION     0.49     3.28  1220.18     0  05:03        3.28
  N237                 JUNCTION     1.70     5.30  1377.30     0  02:22        5.30
  N238                 JUNCTION     0.49     2.04  1382.54     0  05:06        2.04
  N239                 JUNCTION     0.29     1.20  1379.35     0  05:07        1.20
  N24                  JUNCTION     0.12     0.59  1237.11     0  05:05        0.59
  N240                 JUNCTION     0.95     5.19  1378.79     0  05:16        5.19
  N241                 JUNCTION     0.00     0.00  1371.50     0  00:00        0.00
  N242                 JUNCTION     0.00     0.00  1365.98     0  00:00        0.00
  N243                 JUNCTION     0.00     0.00  1365.89     0  00:00        0.00
  N244                 JUNCTION     0.19     1.04  1374.83     0  05:00        1.04
  N245                 JUNCTION     0.25     1.10  1368.98     0  06:05        1.10
  N246                 JUNCTION     0.98     2.72  1364.62     0  06:10        2.72
  N247                 JUNCTION     0.94     2.26  1364.66     0  06:10        2.26
  N248                 JUNCTION     1.84     5.00  1374.00     0  02:25        5.00
  N249                 JUNCTION     1.26     4.97  1382.97     0  02:28        4.96
  N25                  JUNCTION     0.07     0.39  1259.89     0  05:03        0.39
  N250                 JUNCTION     1.13     4.80  1377.80     0  02:39        4.80
  N251                 JUNCTION     0.02     0.12  1347.79     0  05:01        0.12
  N252                 JUNCTION     0.14     0.59  1330.38     0  05:00        0.59
  N253                 JUNCTION     0.09     0.41  1299.74     0  05:02        0.41
  N254                 JUNCTION     0.20     0.97  1284.65     0  05:03        0.97
  N255                 JUNCTION     0.10     0.41  1280.25     0  05:00        0.41
  N256                 JUNCTION     0.10     0.42  1273.49     0  05:01        0.42
  N257                 JUNCTION     0.44     2.24  1283.07     0  05:05        2.24
  N258                 JUNCTION     0.06     0.47  1227.17     0  05:10        0.47
  N259                 JUNCTION     0.38     1.78  1393.78     0  05:03        1.78
  N26                  JUNCTION     0.03     0.15  1259.70     0  05:05        0.15
  N260                 JUNCTION     0.41     1.86  1385.86     0  05:10        1.86
  N261                 JUNCTION     0.31     1.67  1393.67     0  05:04        1.67
  N262                 JUNCTION     1.06     4.50  1393.50     0  05:07        4.50
  N263                 JUNCTION     0.17     0.81  1383.31     0  05:03        0.81
  N264                 JUNCTION     8.95    10.00    10.00     0  04:17       10.00
  N265                 JUNCTION     0.00     0.00  1373.00     0  00:00        0.00
  N266                 JUNCTION     0.54     2.31  1386.31     0  05:09        2.31
  N267                 JUNCTION     0.69     3.09  1380.09     0  05:08        3.09
  N268                 JUNCTION     0.54     2.40  1372.40     0  06:11        2.39
  N269                 JUNCTION     0.03     0.31  1386.31     0  05:07        0.31
  N27                  JUNCTION     0.23     0.94  1262.98     0  05:04        0.94
  N270                 JUNCTION     0.15     0.71  1386.50     0  05:00        0.71
  N271                 JUNCTION     0.17     0.79  1343.51     0  05:01        0.79
  N272                 JUNCTION     0.26     1.18  1290.89     0  05:02        1.18
  N273                 JUNCTION     0.44     1.93  1270.30     0  05:04        1.93
  N274                 JUNCTION     0.25     1.12  1278.84     0  05:03        1.12
  N275                 JUNCTION     0.12     0.57  1380.54     0  05:00        0.57
  N276                 JUNCTION     0.12     0.57  1325.25     0  05:01        0.57
  N277                 JUNCTION     0.22     1.01  1291.26     0  05:02        1.01
  N278                 JUNCTION     0.14     0.67  1382.87     0  05:00        0.67
  N279                 JUNCTION     0.13     0.58  1351.28     0  05:01        0.58
  N28                  JUNCTION     0.23     1.05  1254.68     0  05:05        1.05
  N280                 JUNCTION     0.11     0.50  1330.13     0  05:00        0.50
  N29                  JUNCTION     0.19     0.82  1249.61     0  05:06        0.82
  N3                   JUNCTION     0.23     0.80  1240.41     0  05:10        0.80
  N30                  JUNCTION     0.05     0.24  1250.15     0  05:00        0.24
  N31                  JUNCTION     0.04     0.26  1247.15     0  05:02        0.26
  N32                  JUNCTION     0.10     0.45  1248.45     0  05:01        0.45
  N33                  JUNCTION     0.08     0.41  1244.43     0  04:51        0.41
  N34                  JUNCTION     0.08     0.36  1241.19     0  05:03        0.36
  N35                  JUNCTION     0.07     0.34  1237.63     0  05:08        0.34
  N36                  JUNCTION     0.11     0.47  1234.96     0  05:01        0.47
  N37                  JUNCTION     0.07     0.35  1233.77     0  05:05        0.35
  N38                  JUNCTION     0.13     0.81  1233.23     0  05:10        0.81
  N39                  JUNCTION     0.17     0.99  1233.23     0  05:09        0.99
  N4                   JUNCTION     0.26     0.87  1236.84     0  05:09        0.87
  N40                  JUNCTION     0.15     0.74  1232.82     0  05:08        0.74
  N41                  JUNCTION     0.12     0.61  1231.47     0  05:08        0.61
  N42                  JUNCTION     0.11     0.55  1228.64     0  05:09        0.55
  N43                  JUNCTION     0.21     0.87  1226.52     0  05:10        0.87
  N44                  JUNCTION     0.00     0.00  1227.01     0  00:00        0.00
  N45                  JUNCTION     0.03     0.19  1225.07     0  05:00        0.19
  N46                  JUNCTION     0.10     0.49  1224.35     0  05:07        0.49
  N47                  JUNCTION     0.08     0.43  1222.74     0  05:05        0.43
  N48                  JUNCTION     0.11     0.60  1221.24     0  05:07        0.60
  N49                  JUNCTION     0.20     0.58  1222.72     0  05:02        0.58
  N5                   JUNCTION     0.28     1.16  1234.32     0  05:11        1.16
  N50                  JUNCTION     0.06     0.29  1222.54     0  05:10        0.29
  N51                  JUNCTION     0.05     0.23  1221.23     0  05:00        0.23
  N52                  JUNCTION     0.05     0.32  1220.85     0  05:00        0.32
  N53                  JUNCTION     0.03     0.16  1221.47     0  05:01        0.16
  N54                  JUNCTION     0.02     0.12  1230.30     0  05:03        0.12
  N55                  JUNCTION     0.14     0.72  1225.04     0  05:09        0.72
  N56                  JUNCTION     0.15     0.78  1221.24     0  05:09        0.78
  N57                  JUNCTION     0.04     0.30  1221.24     0  05:08        0.30
  N58                  JUNCTION     0.09     0.54  1221.19     0  05:07        0.54
  N59                  JUNCTION     0.00     0.00  1221.13     0  00:00        0.00
  N6                   JUNCTION     0.04     0.18  1234.54     0  05:00        0.18
  N60                  JUNCTION     0.04     0.27  1220.94     0  05:02        0.27
  N61                  JUNCTION     0.03     0.19  1228.16     0  05:03        0.19
  N62                  JUNCTION     0.06     0.41  1223.28     0  05:09        0.41
  N63                  JUNCTION     0.15     0.95  1220.53     0  05:12        0.95
  N64                  JUNCTION     0.31     1.08  1220.45     0  05:13        1.08
  N65                  JUNCTION     0.02     0.13  1221.43     0  05:00        0.13
  N66                  JUNCTION     0.06     0.26  1221.29     0  05:00        0.26
  N67                  JUNCTION     0.03     0.21  1224.94     0  05:09        0.21
  N68                  JUNCTION     0.16     0.79  1230.90     0  05:09        0.79
  N69                  JUNCTION     0.40     1.00  1245.75     0  05:14        1.00
  N7                   JUNCTION     0.11     0.56  1226.09     0  05:10        0.56
  N70                  JUNCTION     0.06     0.34  1257.36     0  05:00        0.34
  N71                  JUNCTION     0.21     0.88  1249.76     0  05:02        0.88
  N72                  JUNCTION     0.63     2.43  1249.37     0  05:03        2.43
  N73                  JUNCTION     0.36     1.27  1244.17     0  05:03        1.27
  N74                  JUNCTION     0.68     2.90  1243.16     0  05:07        2.90
  N75                  JUNCTION     1.16     4.88  1241.88     0  05:09        4.88
  N76                  JUNCTION     0.37     1.39  1233.56     0  05:00        1.39
  N77                  JUNCTION     0.77     2.88  1228.88     0  05:03        2.88
  N78                  JUNCTION     0.47     1.70  1227.52     0  05:03        1.70
  N79                  JUNCTION     0.36     1.26  1226.26     0  05:04        1.26
  N8                   JUNCTION     0.16     0.72  1253.24     0  05:05        0.72
  N80                  JUNCTION     0.06     0.27  1270.58     0  05:00        0.27
  N81                  JUNCTION     0.12     0.49  1265.62     0  05:01        0.49
  N82                  JUNCTION     0.00     0.00  1285.86     0  00:00        0.00
  N83                  JUNCTION     4.87     9.03  1257.53     0  05:20        9.03
  N84                  JUNCTION     2.90     6.66  1257.57     0  05:20        6.66
  N85                  JUNCTION     1.20     3.01  1257.64     0  05:19        3.01
  N86                  JUNCTION     2.13     4.19  1259.19     0  05:12        4.19
  N87                  JUNCTION     0.52     1.97  1259.17     0  05:12        1.97
  N88                  JUNCTION     0.47     0.95  1261.65     0  05:10        0.95
  N89                  JUNCTION     0.65     1.31  1265.00     0  05:28        1.31
  N9                   JUNCTION     0.19     0.82  1243.96     0  05:07        0.82
  N90                  JUNCTION     1.27     2.34  1267.08     0  05:27        2.34
  N91                  JUNCTION     0.84     1.93  1269.07     0  05:26        1.93
  N92                  JUNCTION     1.24     2.60  1273.80     0  05:25        2.60
  N93                  JUNCTION     0.92     1.85  1280.03     0  05:25        1.85
  N94                  JUNCTION     0.90     1.89  1288.36     0  05:24        1.89
  N95                  JUNCTION     1.18     2.28  1294.97     0  05:23        2.28
  N96                  JUNCTION     0.90     1.89  1298.73     0  05:22        1.89
  N97                  JUNCTION     0.86     1.82  1305.57     0  05:21        1.82
  N98                  JUNCTION     0.28     1.19  1370.45     0  05:16        1.19
  N99                  JUNCTION     0.17     0.64  1358.98     0  05:17        0.64
  JCT-174              OUTFALL      0.25     1.03  1231.91     0  05:07        1.03
  JCT-204              OUTFALL      0.04     0.19  1221.56     0  05:00        0.19
  JCT-244              OUTFALL      0.00     0.00  1224.76     0  00:00        0.00
  JCT-246              OUTFALL      0.01     0.16  1221.50     0  05:09        0.16
  JCT-250              OUTFALL      0.14     0.82  1220.35     0  05:13        0.82
  JCT-346              OUTFALL      0.03     0.15  1370.16     0  05:00        0.15
  JCT-438              OUTFALL      1.48     3.12  1214.97     0  05:05        3.12
  JCT-464              OUTFALL      0.47     1.47  1216.47     0  05:03        1.47
  JCT-510              OUTFALL      0.89     3.00  1216.50     0  02:51        3.00
  JCT-678              OUTFALL      0.02     0.16  1230.13     0  04:51        0.16
  STOR-100             STORAGE      4.67     8.62  1372.12     0  06:16        8.62
  STOR-104             STORAGE      0.00     0.00  1374.00     0  00:00        0.00
  STOR-106             STORAGE      0.00     0.00  1377.30     0  00:00        0.00
  STOR-108             STORAGE      0.00     0.00  1385.20     0  00:00        0.00
  STOR-110             STORAGE      0.00     0.00  1377.80     0  00:00        0.00
  STOR-112             STORAGE      0.00     0.00  1380.30     0  00:00        0.00
  STOR-114             STORAGE      0.29     1.79  1371.79     0  06:50        1.79
  STOR-116             STORAGE      0.01     0.08  1377.18     0  02:56        0.08
  STOR-118             STORAGE      0.00     0.00  1405.00     0  00:00        0.00
  STOR-120             STORAGE      0.00     0.00  1408.50     0  00:00        0.00
  STOR-122             STORAGE      0.00     0.00  1412.80     0  00:00        0.00
  STOR-124             STORAGE      0.00     0.00  1411.50     0  00:00        0.00
  
  
  *******************
  Node Inflow Summary
  *******************
  
  -------------------------------------------------------------------------------------------------
                                  Maximum  Maximum                  Lateral       Total        Flow
                                  Lateral    Total  Time of Max      Inflow      Inflow     Balance
                                   Inflow   Inflow   Occurrence      Volume      Volume       Error
  Node                 Type           CFS      CFS  days hr:min    10^6 gal    10^6 gal     Percent
  -------------------------------------------------------------------------------------------------
  N1                   JUNCTION      2.12   130.13     0  05:17        0.14        13.4       0.014
  N10                  JUNCTION      0.42   210.63     0  05:19      0.0281        24.7       0.007
  N100                 JUNCTION      6.39   159.43     0  05:15       0.426        23.3       0.019
  N101                 JUNCTION      0.00   172.36     0  05:17           0        24.4      -0.004
  N102                 JUNCTION      9.31   179.03     0  05:18       0.625        25.1       0.047
  N103                 JUNCTION      5.20   104.95     0  05:06       0.346        18.7       0.013
  N104                 JUNCTION      0.00   104.07     0  05:07           0        18.7       0.011
  N105                 JUNCTION      0.00    37.38     0  05:19           0        2.94       0.074
  N106                 JUNCTION      2.27    11.20     0  05:00        0.15       0.628      -0.036
  N107                 JUNCTION      0.00     0.00     0  00:00           0           0       0.000 gal
  N108                 JUNCTION      2.82     4.31     0  05:00       0.187       0.274       0.018
  N109                 JUNCTION      2.96     2.96     0  05:00       0.196       0.196       0.010
  N11                  JUNCTION      1.10   160.46     0  05:18      0.0724        15.7       0.002
  N110                 JUNCTION      0.00     1.50     0  05:00           0      0.0993       0.068
  N111                 JUNCTION      3.33     4.10     0  05:00        0.22       0.264      -0.032
  N112                 JUNCTION      2.63     5.32     0  05:00       0.174       0.333       0.013
  N113                 JUNCTION      1.40     2.85     0  05:00      0.0927       0.189      -0.020
  N114                 JUNCTION      9.02     9.02     0  05:00       0.605       0.605       0.062
  N115                 JUNCTION      8.13    17.04     0  05:00       0.544        1.15      -0.021
  N116                 JUNCTION      0.00    16.94     0  05:01           0        1.15       0.023
  N117                 JUNCTION      0.00     0.90     0  05:02           0      0.0332       1.118
  N118                 JUNCTION      2.81     3.66     0  05:00       0.186       0.219      -0.080
  N119                 JUNCTION      1.81     8.11     0  05:00       0.119       0.444       0.015
  N12                  JUNCTION      0.00   123.07     0  05:19           0        12.8       0.009
  N120                 JUNCTION      2.34     5.43     0  05:00       0.155       0.242      -0.044
  N121                 JUNCTION      4.82     8.74     0  05:00        0.32       0.478      -0.045
  N122                 JUNCTION      3.69     9.65     0  05:00       0.245       0.545       0.082
  N123                 JUNCTION      3.46     3.46     0  05:00       0.229       0.229      -0.004
  N124                 JUNCTION      0.00     3.43     0  05:00           0       0.229      -0.005
  N125                 JUNCTION      3.81     6.31     0  05:00       0.253       0.387      -0.024
  N126                 JUNCTION      7.74    11.12     0  05:00       0.517       0.698       0.023
  N127                 JUNCTION      0.70     5.56     0  05:00      0.0465       0.296       0.003
  N128                 JUNCTION      5.91     8.38     0  05:00       0.394       0.502      -0.006
  N129                 JUNCTION      0.00     8.03     0  05:01           0       0.444       0.078
  N13                  JUNCTION      1.21     1.21     0  05:00      0.0797      0.0797      -1.455
  N130                 JUNCTION      4.58    12.49     0  05:00       0.304       0.748      -0.007
  N131                 JUNCTION      1.74    12.90     0  05:00       0.115       0.765      -0.004
  N132                 JUNCTION      0.41    11.97     0  05:00      0.0275       0.692       0.004
  N133                 JUNCTION      0.51    11.17     0  05:01      0.0335       0.632      -0.001
  N134                 JUNCTION      0.30    10.24     0  05:01      0.0202       0.565       0.016
  N135                 JUNCTION      0.00    12.38     0  05:00           0        1.24       0.024
  N136                 JUNCTION      0.00   159.95     0  05:07           0        28.1       0.000
  N137                 JUNCTION     19.24    79.09     0  05:00        1.31        16.8      -0.001
  N138                 JUNCTION      0.00    79.09     0  05:00           0        16.8       0.002
  N139                 JUNCTION      0.00    72.44     0  05:01           0        16.1      -0.002
  N14                  JUNCTION      7.54     7.56     0  05:00       0.504       0.504      -0.375
  N140                 JUNCTION      0.00    72.93     0  05:01           0        16.1       0.000
  N141                 JUNCTION      0.00     8.33     0  05:02           0       0.352      -0.198
  N142                 JUNCTION      0.00     8.23     0  05:05           0       0.268       0.003
  N143                 JUNCTION      0.00     8.54     0  05:06           0       0.268      -0.022
  N144                 JUNCTION      0.00    10.25     0  05:03           0       0.272       0.165
  N145                 JUNCTION      3.30     8.38     0  05:00       0.218       0.351      -0.016
  N146                 JUNCTION      0.00    13.92     0  05:03           0       0.844      -0.003
  N147                 JUNCTION      3.47    17.18     0  05:01        0.23        1.07      -0.002
  N148                 JUNCTION      0.00    17.18     0  05:01           0        1.07       0.002
  N149                 JUNCTION      0.00    14.88     0  05:03           0        1.06      -0.016
  N15                  JUNCTION      3.20    45.48     0  05:00       0.212        3.13      -0.033
  N150                 JUNCTION      0.00     9.27     0  05:03           0       0.545      -0.000
  N151                 JUNCTION      0.00   104.85     0  05:11           0          22       0.001
  N152                 JUNCTION      0.00    66.61     0  05:08           0        5.65       0.023
  N153                 JUNCTION      0.00   149.34     0  05:11           0        28.1       0.001
  N154                 JUNCTION      0.00   166.59     0  05:04           0        28.5       0.002
  N155                 JUNCTION      0.00   143.74     0  05:09           0        26.7       0.002
  N156                 JUNCTION      0.00   133.96     0  05:10           0          26       0.002
  N157                 JUNCTION      0.00   133.96     0  05:10           0          26       0.001
  N158                 JUNCTION      0.00    49.12     0  05:04           0         5.7      -0.008
  N159                 JUNCTION      0.00    17.93     0  05:09           0        2.53       0.004
  N16                  JUNCTION      0.00    78.64     0  05:02           0        6.54       0.010
  N160                 JUNCTION      0.00    61.33     0  05:20           0        13.4       0.002
  N161                 JUNCTION      0.00    82.62     0  05:19           0        16.2      -0.000
  N162                 JUNCTION      0.00    61.33     0  05:20           0        13.4       0.001
  N163                 JUNCTION      0.00    16.75     0  05:03           0        2.25       0.001
  N164                 JUNCTION      0.00    16.75     0  05:01           0        2.25      -0.003
  N165                 JUNCTION      0.00    15.42     0  05:22           0        2.14       0.004
  N166                 JUNCTION      0.00    12.42     0  05:09           0       0.605      -0.029
  N167                 JUNCTION      0.51     8.78     0  05:08      0.0337       0.438      -0.000
  N168                 JUNCTION      0.00    45.26     0  06:04           0        2.63       0.000
  N169                 JUNCTION     25.23    25.23     0  05:00        1.74        1.75       1.173
  N17                  JUNCTION      8.73   105.58     0  05:03       0.585        8.29      -0.010
  N170                 JUNCTION      0.00    29.01     0  05:09           0        3.12      -0.009
  N171                 JUNCTION      0.00    98.14     0  05:06           0        9.33      -0.002
  N172                 JUNCTION      0.00    85.25     0  05:10           0        17.8      -0.002
  N173                 JUNCTION      0.00     0.89     0  05:00           0      0.0639      -0.056
  N174                 JUNCTION      0.00     0.89     0  05:00           0      0.0639       0.027
  N175                 JUNCTION      0.00     7.49     0  05:00           0       0.571      -0.012
  N176                 JUNCTION      0.00     8.98     0  04:51           0       0.724      -0.014
  N177                 JUNCTION      0.00     2.65     0  05:04           0       0.184      -0.042
  N178                 JUNCTION      0.00    18.86     0  05:08           0        1.51      -0.010
  N179                 JUNCTION      0.00    46.34     0  05:10           0        3.91       0.002
  N18                  JUNCTION      4.58   109.66     0  05:03       0.304         8.6      -0.005
  N180                 JUNCTION      0.00    26.18     0  05:07           0        1.79       0.022
  N181                 JUNCTION      0.00    76.50     0  05:12           0        6.35       0.003
  N182                 JUNCTION      0.00     1.50     0  05:03           0       0.103      -0.015
  N183                 JUNCTION      0.00    10.82     0  05:09           0       0.666      -0.001
  N184                 JUNCTION      2.79     7.49     0  05:00       0.184       0.571      -0.001
  N185                 JUNCTION      0.00     4.73     0  05:01           0       0.386       0.009
  N186                 JUNCTION      0.00     4.72     0  04:51           0       0.386      -0.004
  N187                 JUNCTION      0.00     8.16     0  05:00           0       0.653       0.106
  N188                 JUNCTION      0.00    78.60     0  05:01           0          17      -0.006
  N189                 JUNCTION      0.00    86.91     0  05:05           0        17.2       0.002
  N19                  JUNCTION      0.00   160.57     0  05:06           0        12.1      -0.007
  N190                 JUNCTION      0.00    85.91     0  05:05           0        17.2      -0.000
  N191                 JUNCTION      0.00     2.45     0  03:03           0       0.084       0.000
  N192                 JUNCTION      0.00     6.77     0  05:01           0       0.548       0.005
  N193                 JUNCTION      0.00     6.05     0  05:01           0       0.493       0.008
  N194                 JUNCTION      0.00     6.05     0  05:00           0       0.493      -0.004
  N195                 JUNCTION      0.00     4.71     0  05:00           0        0.39      -0.001
  N196                 JUNCTION      0.00    14.92     0  05:02           0        1.17       0.000
  N197                 JUNCTION      0.00    14.08     0  05:02           0        1.12       0.001
  N198                 JUNCTION      0.00    14.91     0  05:02           0        1.17      -0.000
  N199                 JUNCTION      0.00    14.91     0  05:03           0        1.17       0.000
  N2                   JUNCTION      4.95    81.35     0  05:14       0.329        7.83       0.002
  N20                  JUNCTION      2.24     2.24     0  05:00       0.148       0.148      -0.434
  N200                 JUNCTION      0.00    14.91     0  05:03           0        1.17      -0.075
  N201                 JUNCTION      0.00    14.08     0  05:02           0        1.12      -0.001
  N202                 JUNCTION      0.00    12.82     0  05:03           0        1.03       0.001
  N203                 JUNCTION      0.00    12.82     0  05:02           0        1.03       0.000
  N204                 JUNCTION      0.00    18.92     0  05:10           0        1.52      -0.007
  N205                 JUNCTION      0.00    14.10     0  05:04           0        1.15      -0.026
  N206                 JUNCTION      0.00     2.46     0  05:23           0       0.226      -0.014
  N207                 JUNCTION      3.80     3.80     0  05:00       0.252       0.253       0.007
  N208                 JUNCTION      0.00    98.14     0  05:06           0        9.33       0.003
  N209                 JUNCTION      0.00    22.33     0  05:05           0        1.85      -0.003
  N21                  JUNCTION      0.00     0.87     0  05:00           0      0.0569      -1.975
  N210                 JUNCTION      0.00     6.45     0  05:03           0       0.456       0.015
  N211                 JUNCTION      0.00     6.45     0  05:03           0       0.456      -0.007
  N212                 JUNCTION      0.00   113.80     0  05:06           0        11.3       0.000
  N213                 JUNCTION      0.00    45.82     0  05:08           0        5.59      -0.001
  N214                 JUNCTION      0.00    68.00     0  05:05           0        5.67      -0.002
  N215                 JUNCTION      0.00    50.41     0  05:05           0        4.23       0.002
  N216                 JUNCTION      0.00    50.41     0  05:05           0        4.23       0.000
  N217                 JUNCTION      0.00     6.57     0  05:01           0       0.439       0.003
  N218                 JUNCTION      0.00    12.71     0  05:01           0       0.886      -0.002
  N219                 JUNCTION      0.00    88.23     0  05:05           0        17.4       0.001
  N22                  JUNCTION      4.20   105.15     0  05:04       0.279        7.44       0.014
  N220                 JUNCTION      0.00     1.38     0  05:02           0       0.107      -0.002
  N221                 JUNCTION      0.00     1.38     0  05:02           0       0.107       0.008
  N222                 JUNCTION      0.00     7.62     0  05:02           0       0.573      -0.017
  N223                 JUNCTION      0.00     8.40     0  08:10           0       0.603       0.033
  N224                 JUNCTION      0.00     6.40     0  05:02           0       0.486       0.001
  N225                 JUNCTION      0.00     5.20     0  05:01           0       0.399       0.000
  N226                 JUNCTION      0.00     3.95     0  05:01           0       0.305      -0.000
  N227                 JUNCTION      0.00     2.64     0  05:01           0       0.205      -0.001
  N228                 JUNCTION      0.00     3.52     0  05:00           0       0.251      -0.003
  N229                 JUNCTION      0.00    12.70     0  05:02           0       0.886      -0.178
  N23                  JUNCTION      2.05    92.73     0  05:04       0.135        6.37       0.002
  N230                 JUNCTION      0.00     4.71     0  05:00           0        0.39       0.001
  N231                 JUNCTION     24.06   310.61     0  06:00        1.66        15.8       0.108
  N232                 JUNCTION     22.04    22.04     0  05:00        1.51        1.51       0.001
  N233                 JUNCTION     23.64    23.64     0  05:00        1.63        1.63      -0.012
  N234                 JUNCTION     61.14    62.51     0  05:00        4.45        4.66       0.005
  N235                 JUNCTION     30.69    37.95     0  06:00        2.14        4.46      -0.090
  N236                 JUNCTION      0.00     3.68     0  05:02           0       0.236      -0.046
  N237                 JUNCTION      0.00     6.55     0  02:31           0       0.886      -0.096
  N238                 JUNCTION     19.05    46.65     0  05:00        1.29        3.44      -0.006
  N239                 JUNCTION      3.94    49.48     0  05:04       0.262         3.7      -0.296
  N24                  JUNCTION      0.99    93.52     0  05:05      0.0655        6.43      -0.003
  N240                 JUNCTION      0.00    49.29     0  05:07           0        3.71       0.311
  N241                 JUNCTION      0.00     0.00     0  00:00           0           0       0.000 gal
  N242                 JUNCTION      0.00     0.00     0  00:00           0           0       0.000 gal
  N243                 JUNCTION      0.00     0.00     0  00:00           0           0       0.000 gal
  N244                 JUNCTION     22.62    22.62     0  05:00        1.55        1.55      -0.082
  N245                 JUNCTION      0.00    61.29     0  06:05           0        4.14       0.001
  N246                 JUNCTION      0.00    69.93     0  07:20           0        15.5       0.003
  N247                 JUNCTION      0.00   101.39     0  06:06           0        16.5       0.008
  N248                 JUNCTION     21.58    24.48     0  05:00        1.48        1.94      -0.045
  N249                 JUNCTION      0.00     3.15     0  02:31           0       0.405      -0.045
  N25                  JUNCTION      0.00    11.17     0  05:01           0       0.628      -0.178
  N250                 JUNCTION     13.40    13.40     0  05:00       0.905       0.905      -0.028
  N251                 JUNCTION      1.33     2.75     0  05:00      0.0878       0.172      -0.023
  N252                 JUNCTION      6.91    24.49     0  05:00       0.461        1.69       0.095
  N253                 JUNCTION      0.00    24.39     0  05:01           0        1.69       0.005
  N254                 JUNCTION      0.00    24.37     0  05:02           0        1.69      -0.011
  N255                 JUNCTION      4.10    28.16     0  05:00       0.272        1.96      -0.001
  N256                 JUNCTION      0.00    28.15     0  05:00           0        1.96       0.021
  N257                 JUNCTION      0.00    24.33     0  05:03           0        1.69       0.041
  N258                 JUNCTION      0.00    14.37     0  05:09           0       0.528       0.053
  N259                 JUNCTION     24.08    24.08     0  05:00        1.63        1.63      -0.501
  N26                  JUNCTION      0.00     2.93     0  05:03           0       0.136      -0.268
  N260                 JUNCTION      7.74    30.29     0  05:00       0.517        2.16       0.455
  N261                 JUNCTION     21.62    21.62     0  05:00        1.46        1.46      -0.583
  N262                 JUNCTION     53.32    73.96     0  05:00        3.74        5.21       0.219
  N263                 JUNCTION     39.09   107.04     0  05:01        2.76        7.95      -0.251
  N264                 JUNCTION     45.53   151.49     0  05:00        3.16        11.1      41.417
  N265                 JUNCTION      0.00     0.00     0  00:00           0           0       0.000 gal
  N266                 JUNCTION    107.02   107.02     0  05:00        8.26        8.27       0.083
  N267                 JUNCTION     74.60   175.50     0  05:02        5.53        13.8      -0.178
  N268                 JUNCTION      0.00   174.27     0  05:09           0        13.9       0.061
  N269                 JUNCTION      0.00     1.50     0  04:41           0      0.0171       5.081
  N27                  JUNCTION      6.23   166.64     0  05:04       0.415        11.9       0.002
  N270                 JUNCTION     48.00    48.00     0  05:00        3.43        3.43       0.001
  N271                 JUNCTION     12.97    60.79     0  05:00       0.876        4.31      -0.000
  N272                 JUNCTION      4.90    92.02     0  05:00       0.326        6.49       0.008
  N273                 JUNCTION      0.00   161.63     0  05:03           0        11.4       0.023
  N274                 JUNCTION      0.00    91.50     0  05:02           0        6.49      -0.004
  N275                 JUNCTION     31.23    31.23     0  05:00        2.18        2.18      -0.001
  N276                 JUNCTION      0.00    31.13     0  05:00           0        2.18       0.000
  N277                 JUNCTION      6.40    70.67     0  05:01       0.427        4.96      -0.003
  N278                 JUNCTION     33.73    33.73     0  05:00        2.36        2.36      -0.001
  N279                 JUNCTION      0.00    33.61     0  05:00           0        2.36       0.001
  N28                  JUNCTION      0.00   166.61     0  05:04           0        11.9       0.006
  N280                 JUNCTION     26.82    26.82     0  05:00        1.85        1.85      -0.010
  N29                  JUNCTION      0.00    98.51     0  05:05           0        6.91       0.009
  N3                   JUNCTION      0.00   155.12     0  05:09           0        12.9       0.021
  N30                  JUNCTION      5.76     5.76     0  05:00       0.383       0.383      -0.016
  N31                  JUNCTION      0.00     5.74     0  05:00           0       0.383      -0.148
  N32                  JUNCTION     17.50    17.50     0  05:00        1.19        1.19      -0.033
  N33                  JUNCTION      3.44    20.65     0  05:00       0.228        1.42       0.044
  N34                  JUNCTION      2.23    15.24     0  05:00       0.148         1.1      -0.003
  N35                  JUNCTION      0.00    13.88     0  05:04           0        1.08       0.052
  N36                  JUNCTION      3.19    14.26     0  05:00       0.211        1.13      -0.019
  N37                  JUNCTION      0.00    14.29     0  05:03           0        1.13      -0.025
  N38                  JUNCTION      1.36    12.75     0  05:04        0.09       0.865      -0.035
  N39                  JUNCTION      2.19    98.66     0  05:09       0.145        5.42       0.013
  N4                   JUNCTION      5.64   103.28     0  05:09       0.375        8.13      -0.005
  N40                  JUNCTION      0.00   159.23     0  05:08           0        9.59       0.005
  N41                  JUNCTION      2.47    57.73     0  05:07       0.163        3.47      -0.008
  N42                  JUNCTION      0.00    57.73     0  05:08           0        3.47      -0.020
  N43                  JUNCTION      0.00    35.97     0  05:09           0        2.35       0.049
  N44                  JUNCTION      0.00     0.00     0  00:00           0           0       0.000 gal
  N45                  JUNCTION      4.25     4.25     0  05:00       0.282       0.282       0.005
  N46                  JUNCTION      3.82    27.32     0  05:06       0.254        1.75      -0.015
  N47                  JUNCTION      0.00    27.31     0  05:07           0        1.76       0.048
  N48                  JUNCTION      3.59    20.91     0  05:01       0.238        1.33       0.075
  N49                  JUNCTION      4.49     7.13     0  05:00       0.298       0.463       0.148
  N5                   JUNCTION      0.00   105.50     0  05:09           0        8.31       0.050
  N50                  JUNCTION      0.00     7.03     0  05:02           0       0.451       0.175
  N51                  JUNCTION      3.04     3.07     0  05:00       0.202       0.202      -0.001
  N52                  JUNCTION      4.07     7.11     0  05:00        0.27       0.472       0.006
  N53                  JUNCTION      2.65     5.36     0  05:00       0.175        0.32      -0.215
  N54                  JUNCTION      2.53     3.38     0  05:00       0.167       0.188      -0.862
  N55                  JUNCTION      5.01   108.64     0  05:08       0.333        6.67       0.030
  N56                  JUNCTION      4.67    78.53     0  05:09        0.31        4.85       0.051
  N57                  JUNCTION      2.92     4.29     0  05:03       0.193       0.243      -0.583
  N58                  JUNCTION      1.96    10.55     0  05:02        0.13       0.646       0.028
  N59                  JUNCTION      0.00     0.00     0  00:00           0           0       0.000 gal
  N6                   JUNCTION      6.04     6.04     0  05:00       0.402       0.402      -0.476
  N60                  JUNCTION      2.83     3.81     0  05:00       0.187       0.236      -0.053
  N61                  JUNCTION      3.15     5.29     0  05:00       0.209       0.278      -0.399
  N62                  JUNCTION      2.21    26.90     0  05:07       0.146        1.31      -0.081
  N63                  JUNCTION      2.37    76.48     0  05:09       0.157        4.25       0.005
  N64                  JUNCTION      0.00    29.98     0  05:11           0        1.42       0.270
  N65                  JUNCTION      1.26     1.26     0  05:00      0.0831      0.0831      -0.253
  N66                  JUNCTION      2.74     3.10     0  05:00       0.181       0.201      -0.292
  N67                  JUNCTION      2.41     7.80     0  05:08        0.16       0.284      -0.619
  N68                  JUNCTION      0.00   103.46     0  05:08           0        6.28       0.010
  N69                  JUNCTION      4.05    33.95     0  05:13       0.269         3.4       0.024
  N7                   JUNCTION      0.00    39.62     0  05:08           0        2.64       0.033
  N70                  JUNCTION      9.52     9.52     0  05:00       0.639       0.639      -0.048
  N71                  JUNCTION     11.35    20.82     0  05:00       0.764         1.4      -0.565
  N72                  JUNCTION     82.12   102.35     0  05:00        6.15        7.56       0.133
  N73                  JUNCTION     32.02   131.93     0  05:01        2.23        9.78      -0.070
  N74                  JUNCTION      8.69   139.99     0  05:02       0.582        10.4       0.040
  N75                  JUNCTION      5.86   143.20     0  05:06        0.39        10.8       0.032
  N76                  JUNCTION      4.03    31.38     0  05:00       0.267        3.17      -0.007
  N77                  JUNCTION      0.00    31.35     0  05:00           0        3.17       0.013
  N78                  JUNCTION      0.00    31.27     0  05:03           0        3.17       0.000
  N79                  JUNCTION      0.00    31.26     0  05:03           0        3.17       0.004
  N8                   JUNCTION      7.25   147.96     0  05:05       0.484        10.1      -0.013
  N80                  JUNCTION      7.93     7.93     0  05:00        0.53        0.53      -0.113
  N81                  JUNCTION      6.50    42.43     0  05:00       0.434        2.92       0.026
  N82                  JUNCTION      0.00     0.00     0  00:00           0           0       0.000 gal
  N83                  JUNCTION      9.61   219.34     0  05:18       0.645        28.9       0.002
  N84                  JUNCTION      0.00   213.08     0  05:14           0        28.3       0.021
  N85                  JUNCTION      0.00   214.14     0  05:11           0        28.3      -0.010
  N86                  JUNCTION      0.00   214.23     0  05:10           0        28.3       0.041
  N87                  JUNCTION      4.71   207.24     0  05:10       0.313        27.7       0.003
  N88                  JUNCTION      0.00   203.48     0  05:10           0        27.4       0.020
  N89                  JUNCTION      0.00   203.53     0  05:27           0        27.4       0.027
  N9                   JUNCTION      5.31    74.34     0  05:06       0.353        5.08      -0.028
  N90                  JUNCTION      2.97   203.57     0  05:26       0.196        27.5       0.035
  N91                  JUNCTION      0.00   201.87     0  05:25           0        27.3       0.007
  N92                  JUNCTION     12.51   201.92     0  05:24       0.844        27.3       0.005
  N93                  JUNCTION      0.00   193.02     0  05:24           0        26.4       0.032
  N94                  JUNCTION      0.00   193.06     0  05:23           0        26.4       0.010
  N95                  JUNCTION      5.36   193.12     0  05:22       0.357        26.4       0.019
  N96                  JUNCTION      0.00   189.61     0  05:21           0        26.1       0.013
  N97                  JUNCTION     15.33   189.67     0  05:20        1.04        26.1       0.010
  N98                  JUNCTION      6.90    53.38     0  05:15       0.461        4.16      -0.002
  N99                  JUNCTION      0.00    53.37     0  05:16           0        4.16      -0.061
  JCT-174              OUTFALL       0.00    96.74     0  05:07           0        6.48       0.000
  JCT-204              OUTFALL       0.00     2.75     0  05:00           0       0.167       0.000
  JCT-244              OUTFALL       0.00     0.00     0  00:00           0           0       0.000 gal
  JCT-246              OUTFALL       0.00     2.17     0  05:09           0      0.0389       0.000
  JCT-250              OUTFALL       0.00    29.90     0  05:13           0        1.41       0.000
  JCT-346              OUTFALL       0.00     1.99     0  05:00           0       0.109       0.000
  JCT-438              OUTFALL       0.00   166.58     0  05:05           0        28.5       0.000
  JCT-464              OUTFALL       0.00    16.75     0  05:03           0        2.25       0.000
  JCT-510              OUTFALL       0.00    56.23     0  05:37           0        5.82       0.000
  JCT-678              OUTFALL       0.00     2.99     0  04:51           0      0.0838       0.000
  STOR-100             STORAGE       0.00   374.51     0  06:00           0        15.4       0.028
  STOR-104             STORAGE       0.00     0.00     0  00:00           0           0       0.000 gal
  STOR-106             STORAGE       0.00     0.00     0  00:00           0           0       0.000 gal
  STOR-108             STORAGE       0.00     0.00     0  00:00           0           0       0.000 gal
  STOR-110             STORAGE       0.00     0.00     0  00:00           0           0       0.000 gal
  STOR-112             STORAGE       0.00     0.00     0  00:00           0           0       0.000 gal
  STOR-114             STORAGE       0.00    45.72     0  06:13           0        1.22       0.113
  STOR-116             STORAGE       0.00     0.26     0  02:51           0     0.00122       0.039
  STOR-118             STORAGE       0.00     0.00     0  00:00           0           0       0.000 gal
  STOR-120             STORAGE       0.00     0.00     0  00:00           0           0       0.000 gal
  STOR-122             STORAGE       0.00     0.00     0  00:00           0           0       0.000 gal
  STOR-124             STORAGE       0.00     0.00     0  00:00           0           0       0.000 gal
  
  
  **********************
  Node Surcharge Summary
  **********************
  
  Surcharging occurs when water rises above the top of the highest conduit.
  ---------------------------------------------------------------------
                                               Max. Height   Min. Depth
                                   Hours       Above Crown    Below Rim
  Node                 Type      Surcharged           Feet         Feet
  ---------------------------------------------------------------------
  N137                 JUNCTION        4.50          2.530        1.882
  N138                 JUNCTION        4.95          2.109        0.000
  N139                 JUNCTION        4.74          1.203        0.982
[...]
  C242                    1.00   0.08  0.00  0.00  0.91  0.00  0.00  0.00  0.87  0.00
  C243                   11.75   0.08  0.00  0.00  0.64  0.28  0.00  0.00  0.67  0.00
  C244                    1.00   0.08  0.05  0.00  0.86  0.01  0.00  0.00  0.24  0.00
  C245                    1.00   0.40  0.16  0.00  0.43  0.00  0.00  0.00  0.68  0.00
  C246                    1.00   0.50  0.15  0.00  0.35  0.00  0.00  0.00  0.74  0.00
  C247                    1.00   0.26  0.15  0.00  0.60  0.00  0.00  0.00  0.65  0.00
  C248                    1.00   0.08  0.64  0.00  0.25  0.03  0.00  0.00  0.71  0.00
  C249                    1.00   0.40  0.26  0.00  0.34  0.00  0.00  0.00  0.67  0.00
  C25                     1.00   0.09  0.01  0.00  0.90  0.00  0.00  0.00  0.01  0.00
  C250                   10.63   0.08  0.37  0.00  0.55  0.00  0.00  0.00  0.91  0.00
  C251                    3.63   0.09  0.00  0.00  0.90  0.01  0.00  0.00  0.89  0.00
  C252                    2.58   0.50  0.17  0.00  0.34  0.00  0.00  0.00  0.62  0.00
  C253                    1.00   0.08  0.00  0.00  0.92  0.00  0.00  0.00  0.00  0.00
  C254                    1.00   0.08  0.00  0.00  0.92  0.00  0.00  0.00  0.88  0.00
  C255                    1.48   1.00  0.00  0.00  0.00  0.00  0.00  0.00  0.00  0.00
  C256                    3.44   0.59  0.41  0.00  0.00  0.00  0.00  0.00  0.00  0.00
  C257                    2.35   0.08  0.92  0.00  0.00  0.00  0.00  0.00  0.00  0.00
  C258                    1.00   0.17  0.32  0.00  0.51  0.00  0.00  0.00  0.77  0.00
  C259                    2.09   0.09  0.09  0.00  0.82  0.00  0.00  0.00  0.90  0.00
  C26                     1.00   0.08  0.02  0.00  0.56  0.34  0.00  0.00  0.48  0.00
  C260                    2.08   0.09  0.00  0.00  0.91  0.00  0.00  0.00  0.23  0.00
  C261                    1.00   0.13  0.12  0.00  0.74  0.00  0.00  0.00  0.41  0.00
  C262                    1.00   0.08  0.00  0.00  0.91  0.01  0.00  0.00  0.70  0.00
  C263                    1.00   0.13  0.11  0.00  0.76  0.00  0.00  0.00  0.73  0.00
  C264                    1.00   0.08  0.00  0.00  0.92  0.00  0.00  0.00  0.91  0.00
  C265                    1.00   0.08  0.00  0.00  0.92  0.00  0.00  0.00  0.91  0.00
  C266                    1.00   0.08  0.00  0.00  0.92  0.00  0.00  0.00  0.61  0.00
  C267                    1.00   0.08  0.00  0.00  0.92  0.00  0.00  0.00  0.27  0.00
  C268                    1.00   0.08  0.00  0.00  0.92  0.00  0.00  0.00  0.92  0.00
  C269                    1.00   0.08  0.00  0.00  0.92  0.00  0.00  0.00  0.90  0.00
  C27                     1.00   0.08  0.00  0.00  0.01  0.91  0.00  0.00  0.21  0.00
  C270                    2.43   0.09  0.00  0.00  0.91  0.00  0.00  0.00  0.63  0.00
  C271                    1.00   0.08  0.00  0.00  0.91  0.00  0.00  0.00  0.07  0.00
  C272                    2.37   0.09  0.00  0.00  0.77  0.14  0.00  0.00  0.00  0.00
  C273                    5.33   0.08  0.00  0.00  0.90  0.01  0.00  0.00  0.69  0.00
  C274                    7.08   0.09  0.00  0.00  0.91  0.00  0.00  0.00  0.01  0.00
  C275                    1.00   0.08  0.00  0.00  0.92  0.00  0.00  0.00  0.00  0.00
  C276                    1.38   0.09  0.00  0.00  0.08  0.83  0.00  0.00  0.00  0.00
  C277                    7.82   0.08  0.00  0.00  0.01  0.90  0.00  0.00  0.02  0.00
  C278                    1.43   0.08  0.00  0.00  0.91  0.00  0.00  0.00  0.92  0.00
  C279                    2.25   0.08  0.00  0.00  0.00  0.91  0.00  0.00  0.00  0.00
  C28                     2.55   0.08  0.01  0.00  0.02  0.89  0.00  0.00  0.02  0.00
  C280                    2.09   0.09  0.00  0.00  0.90  0.01  0.00  0.00  0.89  0.00
  C281                    1.35   0.08  0.00  0.00  0.00  0.91  0.00  0.00  0.87  0.00
  C282                    1.04   0.08  0.01  0.00  0.03  0.88  0.00  0.00  0.91  0.00
  C283                    7.64   0.08  0.44  0.00  0.31  0.16  0.00  0.00  0.90  0.00
  C284                    1.89   0.10  0.00  0.00  0.90  0.00  0.00  0.00  0.89  0.00
  C285                    7.26   0.08  0.02  0.00  0.41  0.49  0.00  0.00  0.58  0.00
  C286                    1.00   0.85  0.00  0.00  0.00  0.15  0.00  0.00  0.75  0.00
  C287                    1.33   0.70  0.22  0.00  0.04  0.04  0.00  0.00  0.77  0.00
  C288                    1.00   0.08  0.00  0.00  0.92  0.00  0.00  0.00  0.86  0.00
  C289                    1.00   0.08  0.00  0.00  0.91  0.00  0.00  0.00  0.92  0.00
  C29                     1.03   0.08  0.00  0.00  0.89  0.03  0.00  0.00  0.90  0.00
  C290                    1.00   0.08  0.00  0.00  0.92  0.00  0.00  0.00  0.87  0.00
  C291                    1.00   0.08  0.00  0.00  0.92  0.00  0.00  0.00  0.00  0.00
  C292                    1.00   0.08  0.00  0.00  0.91  0.01  0.00  0.00  0.92  0.00
  C293                    1.16   0.08  0.92  0.00  0.00  0.00  0.00  0.00  0.00  0.00
  C294                    1.80   1.00  0.00  0.00  0.00  0.00  0.00  0.00  0.00  0.00
  C295                    1.00   0.08  0.00  0.00  0.92  0.00  0.00  0.00  0.90  0.00
  C296                    1.00   0.08  0.00  0.00  0.92  0.00  0.00  0.00  0.17  0.00
  C297                    3.63   0.08  0.01  0.00  0.91  0.00  0.00  0.00  0.72  0.00
  C298                    1.00   0.08  0.11  0.00  0.81  0.00  0.00  0.00  0.75  0.00
  C299                    4.47   1.00  0.00  0.00  0.00  0.00  0.00  0.00  0.00  0.00
  C3                      1.04   0.08  0.01  0.00  0.87  0.04  0.00  0.00  0.91  0.00
  C30                     1.00   0.08  0.01  0.00  0.15  0.76  0.00  0.00  0.02  0.00
  C300                    1.00   0.35  0.65  0.00  0.00  0.00  0.00  0.00  0.00  0.00
  C301                    1.00   0.08  0.00  0.00  0.71  0.20  0.00  0.00  0.90  0.00
  C302                    1.00   0.08  0.00  0.00  0.90  0.01  0.00  0.00  0.90  0.00
  C303                    1.16   0.08  0.00  0.00  0.91  0.01  0.00  0.00  0.69  0.00
  C304                    1.83   0.08  0.00  0.00  0.91  0.01  0.00  0.00  0.89  0.00
  C305                    1.00   0.08  0.00  0.00  0.70  0.21  0.00  0.00  0.75  0.00
  C306                    1.39   0.08  0.00  0.00  0.91  0.01  0.00  0.00  0.91  0.00
  C307                    1.00   0.08  0.00  0.00  0.90  0.01  0.00  0.00  0.89  0.00
  C308                    1.00   0.08  0.00  0.00  0.72  0.19  0.00  0.00  0.69  0.00
  C309                    1.00   0.08  0.00  0.00  0.90  0.01  0.00  0.00  0.91  0.00
  C31                     1.00   0.08  0.00  0.00  0.34  0.58  0.00  0.00  0.03  0.00
  C310                    1.67   0.08  0.00  0.00  0.90  0.02  0.00  0.00  0.90  0.00
  C311                    1.15   0.08  0.01  0.00  0.76  0.15  0.00  0.00  0.50  0.00
  C32                     1.92   0.08  0.33  0.00  0.59  0.00  0.00  0.00  0.84  0.00
  C33                     1.00   0.09  0.00  0.00  0.84  0.07  0.00  0.00  0.29  0.00
  C34                     1.00   0.08  0.00  0.00  0.24  0.68  0.00  0.00  0.00  0.00
  C35                     1.00   0.08  0.00  0.00  0.92  0.00  0.00  0.00  0.71  0.00
  C36                     1.00   0.08  0.00  0.00  0.19  0.72  0.00  0.00  0.07  0.00
  C37                     1.00   0.08  0.01  0.00  0.91  0.00  0.00  0.00  0.91  0.00
  C38                     1.00   0.08  0.00  0.00  0.23  0.69  0.00  0.00  0.00  0.00
  C39                     1.00   0.08  0.01  0.00  0.83  0.08  0.00  0.00  0.20  0.00
  C4                      1.00   0.08  0.00  0.00  0.25  0.67  0.00  0.00  0.25  0.00
  C40                     1.00   0.61  0.00  0.00  0.38  0.01  0.00  0.00  0.04  0.00
  C41                     1.90   0.08  0.57  0.00  0.34  0.01  0.00  0.00  0.72  0.00
  C42                     1.00   0.08  0.01  0.00  0.91  0.00  0.00  0.00  0.68  0.00
  C43                     1.08   0.08  0.00  0.00  0.12  0.80  0.00  0.00  0.00  0.00
  C44                     1.00   0.09  0.00  0.00  0.90  0.01  0.00  0.00  0.90  0.00
  C45                     1.00   0.09  0.01  0.00  0.91  0.00  0.00  0.00  0.01  0.00
  C46                     1.00   0.09  0.91  0.00  0.00  0.00  0.00  0.00  0.00  0.00
  C47                     1.00   0.51  0.49  0.00  0.00  0.00  0.00  0.00  0.00  0.00
  C48                     1.00   0.51  0.00  0.00  0.46  0.03  0.00  0.00  0.76  0.00
  C49                     1.17   0.08  0.00  0.00  0.13  0.79  0.00  0.00  0.00  0.00
  C5                      1.00   0.08  0.00  0.00  0.85  0.06  0.00  0.00  0.70  0.00
  C50                     1.00   0.08  0.01  0.00  0.83  0.08  0.00  0.00  0.20  0.00
  C51                     1.00   0.08  0.01  0.00  0.91  0.00  0.00  0.00  0.72  0.00
  C52                     1.00   0.08  0.01  0.00  0.91  0.00  0.00  0.00  0.25  0.00
  C53                     1.00   0.08  0.87  0.00  0.05  0.00  0.00  0.00  0.80  0.00
  C54                     1.00   0.08  0.00  0.00  0.26  0.66  0.00  0.00  0.15  0.00
  C55                     1.00   0.34  0.01  0.00  0.56  0.09  0.00  0.00  0.01  0.00
  C56                     1.00   0.08  0.01  0.00  0.91  0.00  0.00  0.00  0.73  0.00
  C57                     1.00   0.52  0.34  0.00  0.14  0.00  0.00  0.00  0.88  0.00
  C58                     1.00   0.08  0.44  0.00  0.48  0.00  0.00  0.00  0.91  0.00
  C59                     1.00   0.08  0.00  0.00  0.78  0.14  0.00  0.00  0.19  0.00
  C6                      1.26   0.08  0.00  0.00  0.59  0.32  0.00  0.00  0.63  0.00
  C60                     1.00   0.50  0.21  0.00  0.29  0.00  0.00  0.00  0.83  0.00
  C61                     1.00   0.08  0.63  0.00  0.29  0.00  0.00  0.00  0.82  0.00
  C62                     1.00   0.52  0.34  0.00  0.14  0.00  0.00  0.00  0.88  0.00
  C63                     1.00   0.64  0.00  0.00  0.34  0.02  0.00  0.00  0.22  0.00
  C64                     1.00   0.08  0.61  0.00  0.30  0.00  0.00  0.00  0.68  0.00
  C65                     1.17   0.08  0.92  0.00  0.00  0.00  0.00  0.00  0.00  0.00
  C66                     1.00   0.66  0.34  0.00  0.00  0.00  0.00  0.00  0.00  0.00
  C67                     1.00   0.64  0.00  0.00  0.32  0.04  0.00  0.00  0.18  0.00
  C68                     1.00   0.37  0.49  0.00  0.14  0.00  0.00  0.00  0.88  0.00
  C69                     1.00   0.37  0.00  0.00  0.57  0.06  0.00  0.00  0.21  0.00
  C7                      1.00   0.08  0.73  0.00  0.19  0.00  0.00  0.00  0.89  0.00
  C70                     1.00   0.57  0.00  0.00  0.43  0.00  0.00  0.00  0.90  0.00
  C71                     1.08   0.37  0.15  0.00  0.48  0.00  0.00  0.00  0.91  0.00
  C72                     1.09   1.00  0.00  0.00  0.00  0.00  0.00  0.00  0.00  0.00
  C73                     1.23   0.92  0.00  0.00  0.06  0.02  0.00  0.00  0.75  0.00
  C74                     1.00   0.08  0.50  0.00  0.41  0.00  0.00  0.00  0.68  0.00
  C75                     1.00   0.09  0.02  0.00  0.88  0.00  0.00  0.00  0.00  0.00
  C76                     1.00   0.08  0.61  0.00  0.30  0.00  0.00  0.00  0.91  0.00
  C77                     1.00   0.08  0.00  0.00  0.43  0.49  0.00  0.00  0.20  0.00
  C78                     1.00   0.58  0.40  0.00  0.01  0.00  0.00  0.00  0.80  0.00
  C79                     2.25   0.79  0.04  0.00  0.14  0.02  0.00  0.00  0.86  0.00
  C8                      1.00   0.08  0.00  0.00  0.68  0.23  0.00  0.00  0.61  0.00
  C80                     1.00   0.50  0.20  0.00  0.30  0.00  0.00  0.00  0.91  0.00
  C81                     1.87   0.09  0.00  0.00  0.86  0.04  0.00  0.00  0.88  0.00
  C82                     1.00   0.08  0.01  0.00  0.14  0.76  0.00  0.00  0.03  0.00
  C83                     1.00   0.57  0.26  0.00  0.17  0.00  0.00  0.00  0.72  0.00
  C84                     1.00   0.50  0.00  0.00  0.43  0.06  0.00  0.00  0.14  0.00
  C85                     1.00   0.08  0.00  0.00  0.92  0.00  0.00  0.00  0.08  0.00
  C86                     1.00   0.08  0.00  0.00  0.92  0.00  0.00  0.00  0.72  0.00
  C87                     1.00   0.08  0.68  0.00  0.24  0.00  0.00  0.00  0.88  0.00
  C88                     1.00   0.08  0.88  0.00  0.03  0.00  0.00  0.00  0.81  0.00
  C89                     1.00   0.08  0.00  0.00  0.91  0.00  0.00  0.00  0.91  0.00
  C9                      3.10   0.08  0.00  0.00  0.74  0.18  0.00  0.00  0.09  0.00
  C90                     1.00   0.08  0.00  0.00  0.00  0.91  0.00  0.00  0.91  0.00
  C91                     1.00   0.08  0.92  0.00  0.00  0.00  0.00  0.00  0.00  0.00
  C92                     1.00   0.08  0.92  0.00  0.00  0.00  0.00  0.00  0.00  0.00
  C93                     5.55   0.08  0.01  0.00  0.91  0.00  0.00  0.00  0.92  0.00
  C94                     4.10   0.08  0.00  0.00  0.58  0.34  0.00  0.00  0.68  0.00
  C95                     3.53   0.08  0.00  0.00  0.01  0.90  0.00  0.00  0.00  0.00
  C96                     3.82   0.09  0.00  0.00  0.63  0.28  0.00  0.00  0.65  0.00
  C97                     2.66   0.08  0.02  0.00  0.82  0.08  0.00  0.00  0.84  0.00
  C98                     2.67   0.08  0.00  0.00  0.00  0.91  0.00  0.00  0.00  0.00
  C99                     3.31   0.08  0.01  0.00  0.91  0.00  0.00  0.00  0.91  0.00
  
  
  *************************
  Conduit Surcharge Summary
  *************************
  
  ----------------------------------------------------------------------------
                                                           Hours        Hours 
                         --------- Hours Full --------   Above Full   Capacity
  Conduit                Both Ends  Upstream  Dnstream   Normal Flow   Limited
  ----------------------------------------------------------------------------
  C105                        0.63      0.63      4.45      0.01         0.01
  C148                        3.49      3.49      5.08      0.01         0.50
  C149                        0.01      0.01      4.50      0.01         0.01
  C150                        4.50      4.50      4.95      0.01         2.22
  C151                        4.74      4.95      4.74      4.83         4.74
  C152                        1.35      4.74      1.35      0.01         1.35
  C156                        0.38      0.38      0.59      0.01         0.18
  C157                        0.98      0.98      3.47      0.01         0.01
  C158                        0.01      3.47      0.01      2.49         0.01
  C159                        0.38      0.65      0.38      0.78         0.38
  C160                        4.78      5.43      4.78      3.21         2.58
  C161                        3.39      3.39      5.41      0.01         0.01
  C166                        3.76      4.39      3.76      4.42         3.76
  C167                        0.01      0.01      4.00      0.01         0.01
  C168                        4.31      4.31      6.60      0.01         0.01
  C169                        3.91      3.91      4.31      0.01         0.01
  C170                        1.81      1.81      4.92      0.01         0.01
  C171                        1.66      1.66      1.81      0.01         1.06
  C172                       16.25     17.73     16.25     17.37        16.25
  C173                        0.01      3.21      0.01      0.01         0.01
  C174                        3.21      4.10      3.21      4.77         3.21
  C175                        4.39      4.39      4.58      3.81         4.03
  C176                        0.01      0.01      2.05      0.01         0.01
  C177                       15.76     15.76     21.63      0.01         0.01
  C179                        5.88      6.41      5.88      6.65         5.88
  C180                        3.50      5.27      3.50      3.22         3.50
  C181                        5.00      5.00      5.27      0.01         0.01
  C182                        3.54      3.54      4.04      0.01         0.01
  C183                        3.43      3.43      3.58      0.01         0.01
  C184                        3.49      3.49      4.07      0.01         0.01
  C185                        4.30      4.30      4.55      0.01         0.01
  C186                        1.93      1.93      4.39      0.01         0.01
  C187                        4.18      4.18      4.20      3.81         3.91
  C188                        4.01      4.02      4.10      4.11         4.01
  C189                        3.49      3.49      3.52      0.01         0.01
  C190                        4.05      4.05      4.14      2.10         0.07
  C191                        3.89      3.89      4.43      3.46         0.01
  C192                        2.60      2.60      3.43      1.02         1.13
  C193                        1.02      1.02      1.14      0.01         0.01
  C195                        0.01      0.01      1.36      0.01         0.01
  C197                        0.01      0.01     19.85      0.01         0.01
  C198                        0.01      0.01     21.49      0.01         0.01
  C199                        1.35      1.35      3.43      0.01         0.01
  C205                        0.01      0.01      0.01      1.74         0.01
  C208                        0.01      0.01      1.02      0.01         0.01
  C209                        0.01      0.42      0.01      0.01         0.01
  C211                        0.01      2.05      0.01      1.16         0.01
  C212                        2.05      2.14      2.05      1.80         2.05
  C213                        4.20      5.56      4.20      5.62         4.20
  C214                        5.26      5.26      5.56      0.01         0.01
  C215                        4.58      4.58      5.26      0.01         0.01
  C216                        3.58      3.58      4.58      0.01         0.01
  C217                        1.14      1.14      2.60      0.01         0.01
  C218                        4.10      4.58      4.10      4.80         4.10
  C220                        4.02      4.02      4.71      3.73         3.75
  C221                        3.10      3.10      3.49      2.69         2.91
  C222                        3.04      3.07      3.10      3.02         3.04
  C223                        5.42      5.42      5.66      0.01         0.01
  C224                        1.42      2.85      1.42      4.33         1.42
  C225                        0.01      0.01      2.85      0.01         0.01
  C226                        0.01      0.01      5.42      0.01         0.01
  C232                        0.01      0.34      0.01      0.01         0.01
  C233                        0.47      0.47      1.37      0.01         0.01
  C236                        0.01      0.01     13.34      0.01         0.01
  C242                        0.09      0.09      0.68      0.01         0.01
  C244                       15.44     15.58     16.08      2.86         1.21
  C245                        5.63      5.63      6.00      0.01         0.01
  C246                        3.17      3.17      3.89      0.01         0.01
  C247                        5.98      6.00      7.33      5.84         5.81
  C248                        4.54      4.54      4.59      4.31         4.34
  C249                        5.92      5.92      6.00      5.05         0.01
  C252                        4.04      4.04      4.14      0.01         0.01
  C261                        7.33      7.33     15.58      0.13         0.12
  C262                        4.59      4.59      5.92      0.01         0.01
  C263                        4.37      4.37     15.58      0.01         0.01
  C271                        0.01      4.01      0.01      4.00         0.01
  C275                        0.01      0.01      0.01      2.96         0.01
  C276                        1.00     15.30      1.00     12.26         1.00
  C277                        0.01      3.56      0.01      0.01         0.01
  C292                        0.01      0.01     19.71      0.01         0.01
  

  Analysis begun on:  Wed Jun 24 15:09:55 2026
  Analysis ended on:  Wed Jun 24 15:10:00 2026
  Total elapsed time: 00:00:05