
  EPA STORM WATER MANAGEMENT MODEL - VERSION 5.2 (Build 5.2.4)
  ------------------------------------------------------------

  WARNING 04: minimum elevation drop used for Conduit 195
  WARNING 04: minimum elevation drop used for Conduit 247
  WARNING 04: minimum elevation drop used for Conduit 251
  WARNING 04: minimum elevation drop used for Conduit 371
  WARNING 04: minimum elevation drop used for Conduit 373
  WARNING 04: minimum elevation drop used for Conduit 491
  WARNING 08: elevation drop exceeds length for Conduit 615
  WARNING 04: minimum elevation drop used for Conduit 705
  WARNING 04: minimum elevation drop used for Conduit 735
  WARNING 04: minimum elevation drop used for Conduit 745
  WARNING 08: elevation drop exceeds length for Conduit 785
  WARNING 02: maximum depth increased for Node NL_638
  WARNING 02: maximum depth increased for Node NL_784
  
  ****************
  Analysis Options
  ****************
  Flow Units ............... CFS
  Process Models:
    Rainfall/Runoff ........ NO
    RDII ................... NO
    Snowmelt ............... NO
    Groundwater ............ NO
    Flow Routing ........... YES
    Ponding Allowed ........ NO
    Water Quality .......... NO
  Flow Routing Method ...... DYNWAVE
  Surcharge Method ......... EXTRAN
  Starting Date ............ 01/01/2002 00:00:00
  Ending Date .............. 01/01/2002 12:00:00
  Antecedent Dry Days ...... 5.0
  Report Time Step ......... 00:05:00
  Routing Time Step ........ 60.00 sec
  Variable Time Step ....... YES
  Maximum Trials ........... 8
  Number of Threads ........ 1
  Head Tolerance ........... 0.001000 ft
  
  
  **************************        Volume        Volume
  Flow Routing Continuity        acre-feet      10^6 gal
  **************************     ---------     ---------
  Dry Weather Inflow .......         6.412         2.089
  Wet Weather Inflow .......         0.000         0.000
  Groundwater Inflow .......         0.000         0.000
  RDII Inflow ..............         0.000         0.000
  External Inflow ..........         0.000         0.000
  External Outflow .........         0.000         0.000
  Flooding Loss ............         5.859         1.909
  Evaporation Loss .........         0.000         0.000
  Exfiltration Loss ........         0.000         0.000
  Initial Stored Volume ....         0.003         0.001
  Final Stored Volume ......         0.552         0.180
  Continuity Error (%) .....         0.063
  
  
  *************************
  Highest Continuity Errors
  *************************
  Node NL_200 (100.00%)
  Node NL_640 (100.00%)
  Node NL_782 (100.00%)
  Node NL_330 (99.51%)
  Node NL_158 (99.08%)
  
  
  ***************************
  Time-Step Critical Elements
  ***************************
  Link 219 (48.79%)
  Link 231 (25.28%)
  Link 329 (8.08%)
  Link 557 (2.30%)
  Link 63 (2.13%)
  
  
  ********************************
  Highest Flow Instability Indexes
  ********************************
  Link 63 (21)
  Link 317 (15)
  Link 767 (13)
  Link 37 (13)
  Link 413 (13)
  
  
  *********************************
  Most Frequent Nonconverging Nodes
  *********************************
  Node 94 (13.46%)
  Node NL_254 (2.38%)
  Node NL_606 (2.09%)
  Node NL_252 (1.27%)
  Node NL_600 (1.15%)
  
  
  *************************
  Routing Time Step Summary
  *************************
  Minimum Time Step           :     0.31 sec
  Average Time Step           :    17.73 sec
  Maximum Time Step           :    34.59 sec
  % of Time in Steady State   :     0.00
  Average Iterations per Step :     4.07
  % of Steps Not Converging   :    13.46
  Time Step Frequencies       :
     60.000 -  6.645 sec      :    97.41 %
      6.645 -  0.736 sec      :     2.55 %
      0.736 -  0.082 sec      :     0.04 %
      0.082 -  0.009 sec      :     0.00 %
      0.009 -  0.001 sec      :     0.00 %
  
  
  ******************
  Node Depth Summary
  ******************
  
  ---------------------------------------------------------------------------------
                                 Average  Maximum  Maximum  Time of Max    Reported
                                   Depth    Depth      HGL   Occurrence   Max Depth
  Node                 Type         Feet     Feet     Feet  days hr:min        Feet
  ---------------------------------------------------------------------------------
  20                   JUNCTION     1.15     1.67   316.94     0  06:13        1.66
  22                   JUNCTION     0.77     1.20   317.03     0  08:06        1.20
  24                   JUNCTION     0.17     0.26   323.98     0  07:39        0.26
  26                   JUNCTION     0.08     0.12   329.62     0  07:45        0.12
  28                   JUNCTION     0.30     0.44   340.29     0  07:21        0.44
  30                   JUNCTION     1.97     2.00   335.74     0  00:15        2.00
  32                   JUNCTION     1.91     2.00   331.50     0  00:56        2.00
  34                   JUNCTION     1.25     2.00   353.90     0  06:01        2.00
  36                   JUNCTION     0.36     0.49   330.17     0  07:06        0.49
  38                   JUNCTION     1.12     1.64   321.14     0  07:00        1.52
  40                   JUNCTION     0.07     0.10   323.91     0  08:00        0.10
  42                   JUNCTION     1.28     1.44   326.76     0  07:00        1.42
  44                   JUNCTION     0.28     0.42   337.03     0  07:22        0.42
  46                   JUNCTION     0.56     0.90   329.14     0  07:45        0.90
  48                   JUNCTION     0.65     1.47   331.06     0  08:25        1.47
  50                   JUNCTION     0.18     0.33   331.29     0  08:42        0.33
  52                   JUNCTION     0.59     1.23   345.07     0  08:07        1.22
  54                   JUNCTION     1.94     2.00   336.50     0  00:45        2.00
  56                   JUNCTION     0.41     0.56   342.16     0  08:00        0.56
  58                   JUNCTION     0.16     0.24   351.31     0  07:48        0.24
  60                   JUNCTION     0.34     0.53   354.09     0  07:51        0.53
  62                   JUNCTION     0.28     0.42   367.92     0  07:04        0.42
  64                   JUNCTION     1.97     2.00   345.50     0  00:34        2.00
  66                   JUNCTION     0.00     0.00   350.50     0  00:00        0.00
  68                   JUNCTION     0.17     0.25   365.24     0  08:00        0.25
  70                   JUNCTION     0.22     0.33   377.57     0  07:58        0.33
  72                   JUNCTION     1.35     1.68   369.01     0  06:00        1.63
  74                   JUNCTION     0.10     0.15   389.65     0  07:58        0.15
  76                   JUNCTION     0.06     0.08   383.76     0  07:32        0.08
  78                   JUNCTION     1.97     2.00   383.96     0  00:19        2.00
  80                   JUNCTION     0.14     0.20   420.44     0  07:01        0.20
  82                   JUNCTION     1.93     2.00   378.95     0  00:57        2.00
  84                   JUNCTION     1.06     1.21   346.58     0  07:00        1.18
  86                   JUNCTION     0.04     0.06   409.47     0  07:01        0.06
  88                   JUNCTION     0.09     0.13   360.63     0  07:03        0.13
  90                   JUNCTION     1.12     1.36   364.40     0  07:00        1.26
  92                   JUNCTION     0.09     0.13   364.09     0  07:45        0.13
  NL_100               JUNCTION     0.46     1.06   331.03     0  08:28        1.06
  NL_102               JUNCTION     0.35     0.69   344.15     0  08:27        0.69
  NL_104               JUNCTION     0.33     0.67   343.08     0  08:30        0.67
  NL_106               JUNCTION     0.35     0.71   342.00     0  08:38        0.71
  NL_108               JUNCTION     0.29     0.60   340.51     0  08:44        0.60
  NL_110               JUNCTION     0.28     0.58   338.32     0  08:45        0.58
  NL_112               JUNCTION     0.30     0.63   336.21     0  08:54        0.63
  NL_114               JUNCTION     0.28     0.59   333.94     0  08:55        0.59
  NL_116               JUNCTION     0.53     1.35   332.27     0  08:25        1.33
  NL_118               JUNCTION     0.86     1.74   330.14     0  08:25        1.74
  NL_120               JUNCTION     0.65     1.11   329.40     0  07:50        1.11
  NL_122               JUNCTION     0.00     0.00   337.00     0  00:00        0.00
  NL_124               JUNCTION     0.00     0.00   335.22     0  00:00        0.00
  NL_126               JUNCTION     0.00     0.00   334.68     0  00:00        0.00
  NL_128               JUNCTION     0.00     0.00   334.50     0  00:00        0.00
  NL_130               JUNCTION     0.00     0.00   333.03     0  00:00        0.00
  NL_132               JUNCTION     0.00     0.00   331.12     0  00:00        0.00
  NL_134               JUNCTION     0.00     0.00   330.61     0  00:00        0.00
  NL_136               JUNCTION     0.25     0.41   326.21     0  07:42        0.41
  NL_138               JUNCTION     1.90     2.00   321.50     0  01:01        2.00
  NL_140               JUNCTION     0.00     0.00   329.50     0  00:00        0.00
  NL_142               JUNCTION     0.00     0.00   329.50     0  00:00        0.00
  NL_144               JUNCTION     0.00     0.00   324.76     0  00:00        0.00
  NL_146               JUNCTION     0.00     0.00   329.41     0  00:00        0.00
  NL_148               JUNCTION     0.29     0.44   334.93     0  08:00        0.44
  NL_150               JUNCTION     0.21     0.25   334.31     0  06:09        0.25
  NL_152               JUNCTION     1.24     1.39   332.07     0  08:13        1.39
  NL_154               JUNCTION     0.19     0.23   331.04     0  11:35        0.23
  NL_156               JUNCTION     0.20     0.30   320.21     0  07:34        0.30
  NL_158               JUNCTION     1.00     1.15   317.43     0  00:43        1.05
  NL_160               JUNCTION     0.00     0.00   318.36     0  00:00        0.00
  NL_162               JUNCTION     0.00     0.00   318.70     0  00:00        0.00
  NL_164               JUNCTION     0.00     0.00   318.87     0  00:00        0.00
  NL_166               JUNCTION     0.00     0.00   321.50     0  00:00        0.00
  NL_168               JUNCTION     0.00     0.00   319.56     0  00:00        0.00
  NL_170               JUNCTION     0.00     0.00   317.45     0  00:00        0.00
  NL_172               JUNCTION     0.21     0.30   320.39     0  07:53        0.30
  NL_174               JUNCTION     0.15     0.22   319.72     0  08:02        0.22
  NL_176               JUNCTION     0.08     0.12   319.37     0  08:09        0.12
  NL_178               JUNCTION     0.00     0.00   327.08     0  00:00        0.00
  NL_180               JUNCTION     0.00     0.00   316.56     0  00:00        0.00
  NL_182               JUNCTION     0.00     0.00   318.34     0  00:00        0.00
  NL_184               JUNCTION     1.27     1.79   316.92     0  06:14        1.78
  NL_186               JUNCTION     1.49     2.00   316.90     0  06:11        2.00
  NL_188               JUNCTION     0.27     0.44   320.18     0  08:05        0.44
  NL_190               JUNCTION     1.00     1.30   320.49     0  08:01        1.29
  NL_192               JUNCTION     0.36     0.64   320.64     0  08:01        0.64
  NL_194               JUNCTION     0.13     0.20   327.57     0  07:11        0.20
  NL_196               JUNCTION     0.15     0.24   325.03     0  07:32        0.24
  NL_198               JUNCTION     0.33     0.48   324.98     0  07:32        0.48
  NL_200               JUNCTION     0.02     0.12   325.91     0  12:00        0.12
  NL_202               JUNCTION     0.02     0.04   329.11     0  07:58        0.04
  NL_204               JUNCTION     0.11     0.17   329.67     0  08:04        0.17
  NL_206               JUNCTION     0.20     0.30   330.80     0  08:00        0.30
  NL_208               JUNCTION     0.00     0.00   334.50     0  00:00        0.00
  NL_210               JUNCTION     0.00     0.00   332.74     0  00:00        0.00
  NL_212               JUNCTION     0.00     0.00   335.50     0  00:00        0.00
  NL_214               JUNCTION     0.00     0.00   338.51     0  00:00        0.00
  NL_216               JUNCTION     0.28     0.33   335.66     0  08:15        0.33
  NL_218               JUNCTION     0.42     0.49   342.33     0  08:13        0.49
  NL_220               JUNCTION     0.67     0.76   345.26     0  08:11        0.76
  NL_222               JUNCTION     0.87     1.02   345.61     0  07:04        1.02
  NL_224               JUNCTION     1.02     1.21   345.92     0  07:03        1.20
  NL_226               JUNCTION     1.87     2.00   346.50     0  06:03        2.00
  NL_228               JUNCTION     0.44     0.62   348.85     0  08:28        0.62
  NL_230               JUNCTION     0.18     0.20   330.70     0  01:38        0.20
  NL_232               JUNCTION     0.44     0.48   331.41     0  01:23        0.48
  NL_234               JUNCTION     0.99     1.26   331.80     0  07:13        1.26
  NL_236               JUNCTION     0.71     1.39   332.66     0  07:46        1.39
  NL_238               JUNCTION     0.34     0.47   339.97     0  08:00        0.47
  NL_240               JUNCTION     0.44     0.62   340.93     0  08:00        0.62
  NL_242               JUNCTION     0.23     0.25   344.82     0  05:34        0.25
  NL_244               JUNCTION     0.27     0.29   348.10     0  05:25        0.29
  NL_246               JUNCTION     1.91     2.00   348.37     0  05:16        2.00
  NL_248               JUNCTION     0.76     1.47   351.47     0  07:10        1.47
  NL_250               JUNCTION     0.44     0.70   366.20     0  07:50        0.70
  NL_252               JUNCTION     1.15     1.54   366.35     0  07:47        1.53
  NL_254               JUNCTION     1.51     2.00   366.50     0  07:09        2.00
  NL_256               JUNCTION     0.00     0.00   344.40     0  00:00        0.00
  NL_258               JUNCTION     0.00     0.00   345.50     0  00:00        0.00
  NL_260               JUNCTION     1.87     2.00   344.48     0  02:01        2.00
  NL_262               JUNCTION     0.35     0.47   344.67     0  08:00        0.47
  NL_264               JUNCTION     0.17     0.26   346.88     0  07:14        0.26
  NL_266               JUNCTION     0.17     0.25   348.95     0  07:12        0.25
  NL_268               JUNCTION     0.00     0.00   352.80     0  00:00        0.00
  NL_270               JUNCTION     0.00     0.00   350.43     0  00:00        0.00
  NL_272               JUNCTION     0.00     0.00   352.00     0  00:00        0.00
  NL_274               JUNCTION     0.00     0.00   345.57     0  00:00        0.00
  NL_276               JUNCTION     0.00     0.00   347.99     0  00:00        0.00
  NL_278               JUNCTION     0.00     0.00   349.50     0  00:00        0.00
  NL_280               JUNCTION     0.00     0.00   342.64     0  00:00        0.00
  NL_282               JUNCTION     0.00     0.00   363.37     0  00:00        0.00
  NL_284               JUNCTION     0.00     0.00   347.22     0  00:00        0.00
  NL_286               JUNCTION     0.00     0.41   346.46     0  00:00        0.04
  NL_288               JUNCTION     0.00     0.00   348.16     0  00:00        0.00
  NL_290               JUNCTION     0.00     0.00   365.87     0  00:00        0.00
  NL_292               JUNCTION     0.00     0.00   364.86     0  00:00        0.00
  NL_294               JUNCTION     0.00     0.00   368.93     0  00:00        0.00
  NL_296               JUNCTION     0.00     0.00   369.50     0  00:00        0.00
  NL_298               JUNCTION     0.00     0.00   380.38     0  00:00        0.00
  NL_300               JUNCTION     0.05     0.07   387.23     0  07:14        0.07
  NL_302               JUNCTION     0.53     0.91   342.36     0  07:39        0.91
  NL_304               JUNCTION     0.72     1.19   342.36     0  07:31        1.18
  NL_306               JUNCTION     0.44     0.94   341.79     0  07:19        0.93
  NL_308               JUNCTION     0.00     0.00   344.50     0  00:00        0.00
  NL_310               JUNCTION     0.00     0.00   345.56     0  00:00        0.00
  NL_312               JUNCTION     0.00     0.00   346.04     0  00:00        0.00
  NL_314               JUNCTION     1.88     2.00   341.50     0  01:23        2.00
  NL_316               JUNCTION     0.12     0.17   345.64     0  07:59        0.17
  NL_318               JUNCTION     0.07     0.10   352.19     0  07:57        0.10
  NL_320               JUNCTION     1.54     1.69   353.60     0  01:39        1.68
  NL_322               JUNCTION     0.00     0.00   356.03     0  00:00        0.00
  NL_324               JUNCTION     0.11     0.17   359.47     0  07:04        0.17
  NL_326               JUNCTION     0.00     0.00   351.43     0  00:00        0.00
  NL_328               JUNCTION     0.00     0.00   354.64     0  00:00        0.00
  NL_330               JUNCTION     0.91     1.03   351.50     0  02:34        1.03
  NL_332               JUNCTION     0.70     0.80   351.52     0  08:00        0.80
  NL_334               JUNCTION     0.13     0.20   353.73     0  08:00        0.20
  NL_336               JUNCTION     0.00     0.00   368.03     0  00:00        0.00
  NL_338               JUNCTION     0.00     0.00   368.99     0  00:00        0.00
  NL_340               JUNCTION     0.00     0.00   368.59     0  00:00        0.00
  NL_342               JUNCTION     0.00     0.00   366.94     0  00:00        0.00
  NL_344               JUNCTION     0.00     0.00   370.53     0  00:00        0.00
  NL_346               JUNCTION     0.00     0.00   370.50     0  00:00        0.00
  NL_348               JUNCTION     0.00     0.00   367.61     0  00:00        0.00
  NL_350               JUNCTION     0.00     0.00   369.50     0  00:00        0.00
  NL_352               JUNCTION     0.00     0.00   374.10     0  00:00        0.00
  NL_354               JUNCTION     0.16     0.24   375.37     0  07:57        0.24
  NL_356               JUNCTION     0.00     0.00   366.93     0  00:00        0.00
  NL_358               JUNCTION     0.00     0.00   369.50     0  00:00        0.00
  NL_360               JUNCTION     0.00     0.00   370.78     0  00:00        0.00
  NL_362               JUNCTION     1.71     2.00   368.96     0  03:24        2.00
  NL_364               JUNCTION     0.00     0.00   367.36     0  00:00        0.00
  NL_366               JUNCTION     0.00     0.00   367.16     0  00:00        0.00
  NL_368               JUNCTION     0.00     0.00   365.77     0  00:00        0.00
  NL_370               JUNCTION     1.49     1.76   360.97     0  02:58        1.75
  NL_372               JUNCTION     0.00     0.00   366.86     0  00:00        0.00
  NL_374               JUNCTION     0.00     0.00   369.50     0  00:00        0.00
  NL_376               JUNCTION     0.00     0.00   369.50     0  00:00        0.00
  NL_378               JUNCTION     0.00     0.00   381.14     0  00:00        0.00
  NL_380               JUNCTION     0.00     0.00   380.00     0  00:00        0.00
  NL_382               JUNCTION     0.00     0.00   379.50     0  00:00        0.00
  NL_384               JUNCTION     0.00     0.00   375.60     0  00:00        0.00
  NL_386               JUNCTION     0.00     0.00   384.20     0  00:00        0.00
  NL_388               JUNCTION     0.00     0.00   392.54     0  00:00        0.00
  NL_390               JUNCTION     0.31     0.43   384.93     0  08:00        0.43
  NL_392               JUNCTION     0.09     0.13   380.98     0  08:00        0.13
  NL_394               JUNCTION     0.00     0.00   383.90     0  00:00        0.00
  NL_396               JUNCTION     0.00     0.00   386.80     0  00:00        0.00
  NL_398               JUNCTION     0.00     0.00   383.11     0  00:00        0.00
  NL_400               JUNCTION     0.65     0.89   381.39     0  05:53        0.89
  NL_402               JUNCTION     0.00     0.00   390.50     0  00:00        0.00
  NL_404               JUNCTION     0.00     0.00   389.70     0  00:00        0.00
  NL_406               JUNCTION     0.00     0.00   411.05     0  00:00        0.00
  NL_408               JUNCTION     0.00     0.00   420.47     0  00:00        0.00
  NL_410               JUNCTION     0.00     0.00   314.50     0  00:00        0.00
  NL_412               JUNCTION     0.00     0.00   318.77     0  00:00        0.00
  NL_414               JUNCTION     0.56     0.93   316.94     0  06:13        0.92
  NL_416               JUNCTION     0.37     0.65   316.94     0  06:13        0.64
  NL_418               JUNCTION     0.00     0.00   318.37     0  00:00        0.00
  NL_420               JUNCTION     0.00     0.00   320.55     0  00:00        0.00
  NL_422               JUNCTION     0.00     0.00   320.03     0  00:00        0.00
  NL_424               JUNCTION     0.00     0.00   318.89     0  00:00        0.00
  NL_426               JUNCTION     0.00     0.00   318.65     0  00:00        0.00
  NL_428               JUNCTION     0.00     0.01   317.43     0  00:44        0.01
  NL_430               JUNCTION     1.94     2.00   317.32     0  00:43        2.00
  NL_432               JUNCTION     0.59     0.85   320.79     0  07:33        0.85
  NL_434               JUNCTION     1.26     1.79   316.93     0  06:14        1.78
  NL_436               JUNCTION     1.46     1.99   316.91     0  06:13        1.98
  NL_438               JUNCTION     1.47     2.00   316.95     0  07:25        2.00
  NL_440               JUNCTION     0.15     0.24   319.40     0  08:06        0.24
  NL_442               JUNCTION     0.40     0.62   320.41     0  08:04        0.62
  NL_444               JUNCTION     0.54     0.86   320.55     0  08:02        0.85
  NL_446               JUNCTION     0.27     0.42   320.98     0  07:48        0.42
  NL_448               JUNCTION     0.16     0.25   324.75     0  07:34        0.25
  NL_450               JUNCTION     1.59     1.81   325.01     0  07:44        1.81
  NL_452               JUNCTION     0.27     0.39   325.42     0  07:15        0.39
  NL_454               JUNCTION     0.13     0.20   329.85     0  07:08        0.20
  NL_456               JUNCTION     0.08     0.13   317.59     0  08:12        0.13
  NL_458               JUNCTION     0.21     0.31   319.60     0  08:06        0.31
  NL_460               JUNCTION     0.10     0.16   320.23     0  08:00        0.16
  NL_462               JUNCTION     0.10     0.15   321.03     0  08:00        0.15
  NL_464               JUNCTION     0.00     0.00   329.50     0  00:00        0.00
  NL_466               JUNCTION     0.24     0.45   325.91     0  12:00        0.45
  NL_468               JUNCTION     0.05     0.08   329.57     0  07:36        0.08
  NL_470               JUNCTION     1.85     2.00   327.50     0  01:32        2.00
  NL_472               JUNCTION     0.26     0.40   330.40     0  08:02        0.40
  NL_474               JUNCTION     0.10     0.15   339.55     0  07:31        0.15
  NL_476               JUNCTION     0.00     0.00   334.76     0  00:00        0.00
  NL_478               JUNCTION     0.00     0.00   334.43     0  00:00        0.00
  NL_480               JUNCTION     0.00     0.00   333.71     0  00:00        0.00
  NL_482               JUNCTION     0.00     0.00   333.87     0  00:00        0.00
  NL_484               JUNCTION     0.00     0.00   339.87     0  00:00        0.00
  NL_486               JUNCTION     0.00     0.00   339.67     0  00:00        0.00
  NL_488               JUNCTION     0.29     0.34   332.46     0  08:16        0.34
  NL_490               JUNCTION     0.25     0.29   341.05     0  08:14        0.29
  NL_492               JUNCTION     0.30     0.35   344.60     0  08:12        0.35
  NL_494               JUNCTION     0.83     0.95   345.45     0  08:10        0.95
  NL_496               JUNCTION     0.74     0.90   345.76     0  08:09        0.90
  NL_498               JUNCTION     0.45     0.51   346.19     0  08:09        0.51
  NL_500               JUNCTION     1.40     2.00   347.65     0  06:06        2.00
  NL_502               JUNCTION     0.41     0.56   352.34     0  08:40        0.56
  NL_504               JUNCTION     0.00     0.00   324.62     0  00:00        0.00
  NL_506               JUNCTION     1.88     2.00   326.61     0  01:23        2.00
  NL_508               JUNCTION     0.13     0.15   329.38     0  01:45        0.15
  NL_510               JUNCTION     0.23     0.26   331.33     0  01:28        0.26
  NL_512               JUNCTION     1.89     2.00   331.42     0  01:21        2.00
  NL_514               JUNCTION     0.79     1.31   332.26     0  07:13        1.30
  NL_516               JUNCTION     0.24     0.33   337.29     0  08:00        0.33
  NL_518               JUNCTION     0.78     1.06   340.51     0  08:00        1.06
  NL_520               JUNCTION     0.53     0.75   341.57     0  07:20        0.75
  NL_522               JUNCTION     0.00     0.00   328.11     0  00:00        0.00
  NL_524               JUNCTION     0.00     0.00   326.97     0  00:00        0.00
  NL_526               JUNCTION     0.00     0.00   325.57     0  00:00        0.00
  NL_528               JUNCTION     0.00     0.00   324.05     0  00:00        0.00
  NL_530               JUNCTION     0.00     0.00   328.88     0  00:00        0.00
  NL_532               JUNCTION     0.28     0.46   322.66     0  07:44        0.46
  NL_534               JUNCTION     0.27     0.45   328.42     0  07:37        0.45
  NL_536               JUNCTION     0.00     0.00   329.70     0  00:00        0.00
  NL_538               JUNCTION     0.00     0.00   330.35     0  00:00        0.00
  NL_540               JUNCTION     0.00     0.00   332.00     0  00:00        0.00
  NL_542               JUNCTION     0.00     0.00   335.06     0  00:00        0.00
  NL_544               JUNCTION     0.00     0.00   335.50     0  00:00        0.00
  NL_546               JUNCTION     0.00     0.00   336.94     0  00:00        0.00
  NL_548               JUNCTION     0.00     0.00   335.94     0  00:00        0.00
  NL_550               JUNCTION     1.69     1.78   336.52     0  00:45        1.76
  NL_552               JUNCTION     0.76     1.15   329.24     0  07:45        1.15
  NL_554               JUNCTION     1.46     2.00   329.50     0  07:32        2.00
  NL_556               JUNCTION     0.73     1.63   330.57     0  08:25        1.62
  NL_558               JUNCTION     0.22     0.55   331.05     0  08:28        0.54
  NL_560               JUNCTION     0.75     1.63   331.01     0  08:28        1.63
  NL_562               JUNCTION     0.60     1.30   330.98     0  08:28        1.30
  NL_564               JUNCTION     0.28     0.61   330.99     0  08:02        0.61
  NL_566               JUNCTION     0.74     1.75   331.66     0  08:25        1.72
  NL_568               JUNCTION     0.28     0.59   332.85     0  08:57        0.59
  NL_570               JUNCTION     0.28     0.60   335.18     0  08:51        0.60
  NL_572               JUNCTION     0.29     0.60   337.31     0  08:47        0.60
  NL_574               JUNCTION     0.28     0.58   339.65     0  08:42        0.58
  NL_576               JUNCTION     0.34     0.69   341.43     0  08:40        0.69
  NL_578               JUNCTION     0.40     0.81   342.51     0  08:36        0.81
  NL_580               JUNCTION     0.40     0.80   343.70     0  08:09        0.80
  NL_582               JUNCTION     0.53     1.06   344.64     0  08:09        1.05
  NL_584               JUNCTION     0.47     0.54   344.52     0  08:01        0.54
  NL_586               JUNCTION     0.45     0.50   344.49     0  02:03        0.50
  NL_588               JUNCTION     0.00     0.00   345.17     0  00:00        0.00
  NL_590               JUNCTION     0.00     0.00   342.94     0  00:00        0.00
  NL_592               JUNCTION     0.22     0.24   343.55     0  05:40        0.24
  NL_594               JUNCTION     0.20     0.22   346.96     0  05:34        0.22
  NL_596               JUNCTION     0.52     0.56   348.34     0  05:20        0.56
  NL_598               JUNCTION     0.31     0.49   350.26     0  07:52        0.49
  NL_600               JUNCTION     0.62     1.75   352.42     0  07:09        1.74
  NL_602               JUNCTION     0.11     0.18   365.68     0  07:48        0.18
  NL_604               JUNCTION     1.42     1.78   366.28     0  07:32        1.77
  NL_606               JUNCTION     1.48     1.94   366.44     0  07:31        1.93
  NL_608               JUNCTION     0.19     0.29   366.91     0  07:09        0.29
  NL_610               JUNCTION     0.17     0.25   345.68     0  07:19        0.25
  NL_612               JUNCTION     0.18     0.27   347.98     0  07:27        0.27
  NL_614               JUNCTION     0.17     0.26   350.19     0  07:07        0.26
  NL_616               JUNCTION     0.00     0.00   352.50     0  00:00        0.00
  NL_618               JUNCTION     0.00     0.00     9.04     0  00:00        0.00
  NL_620               JUNCTION     0.00     0.00   350.50     0  00:00        0.00
  NL_622               JUNCTION     0.00     0.00   349.50     0  00:00        0.00
  NL_624               JUNCTION     0.00     0.00   349.74     0  00:00        0.00
  NL_626               JUNCTION     0.00     0.00   346.42     0  00:00        0.00
  NL_628               JUNCTION     0.31     0.33   345.52     0  00:36        0.33
  NL_630               JUNCTION     0.00     0.00   350.14     0  00:00        0.00
  NL_632               JUNCTION     0.00     0.00   344.50     0  00:00        0.00
  NL_634               JUNCTION     0.00     0.00   351.15     0  00:00        0.00
  NL_636               JUNCTION     0.00     0.00   358.29     0  00:00        0.00
  NL_638               JUNCTION     0.00     0.00   349.20     0  00:00        0.00
  NL_640               JUNCTION     0.46     0.47   340.14     0  00:40        0.47
  NL_644               JUNCTION     0.07     0.11   346.54     0  07:57        0.11
  NL_646               JUNCTION     0.00     0.00   351.02     0  00:00        0.00
  NL_648               JUNCTION     0.00     0.00   372.82     0  00:00        0.00
  NL_650               JUNCTION     0.00     0.00   369.46     0  00:00        0.00
  NL_654               JUNCTION     0.00     0.00   369.75     0  00:00        0.00
  NL_656               JUNCTION     1.83     2.00   380.37     0  01:56        2.00
  NL_658               JUNCTION     0.04     0.06   397.70     0  07:01        0.06
  NL_660               JUNCTION     1.25     1.83   342.37     0  07:46        1.82
  NL_662               JUNCTION     0.07     0.16   342.34     0  07:45        0.16
  NL_664               JUNCTION     1.00     2.00   341.76     0  07:18        2.00
  NL_666               JUNCTION     0.00     0.00   344.31     0  00:00        0.00
  NL_668               JUNCTION     0.00     0.00   347.49     0  00:00        0.00
  NL_670               JUNCTION     0.00     0.00   344.09     0  00:00        0.00
  NL_672               JUNCTION     0.07     0.10   344.60     0  07:59        0.10
  NL_674               JUNCTION     0.10     0.15   346.96     0  07:59        0.15
  NL_676               JUNCTION     0.07     0.10   357.40     0  07:38        0.10
  NL_678               JUNCTION     1.87     2.00   353.59     0  01:39        2.00
  NL_680               JUNCTION     0.00     0.00   354.29     0  00:00        0.00
  NL_682               JUNCTION     1.93     2.00   355.09     0  00:39        2.00
  NL_684               JUNCTION     0.14     0.20   364.19     0  07:03        0.20
  NL_686               JUNCTION     0.00     0.00   350.41     0  00:00        0.00
  NL_688               JUNCTION     0.00     0.00   354.50     0  00:00        0.00
  NL_690               JUNCTION     0.00     0.00   355.50     0  00:00        0.00
  NL_692               JUNCTION     1.83     2.00   351.50     0  02:34        2.00
  NL_694               JUNCTION     1.34     1.48   351.56     0  07:13        1.48
  NL_696               JUNCTION     0.11     0.17   363.27     0  08:00        0.17
  NL_698               JUNCTION     0.00     0.00   367.76     0  00:00        0.00
  NL_700               JUNCTION     0.00     0.00   362.57     0  00:00        0.00
  NL_702               JUNCTION     1.74     2.00   360.96     0  02:58        2.00
  NL_704               JUNCTION     1.30     1.44   364.09     0  07:45        1.43
  NL_706               JUNCTION     0.00     0.00   369.50     0  00:00        0.00
  NL_708               JUNCTION     0.00     0.00   369.50     0  00:00        0.00
  NL_710               JUNCTION     0.00     0.00   380.06     0  00:00        0.00
  NL_712               JUNCTION     1.49     1.59   378.98     0  00:57        1.56
  NL_714               JUNCTION     0.00     0.00   367.46     0  00:00        0.00
  NL_716               JUNCTION     0.00     0.00   369.32     0  00:00        0.00
  NL_718               JUNCTION     0.00     0.00   369.08     0  00:00        0.00
  NL_720               JUNCTION     0.00     0.00   369.81     0  00:00        0.00
  NL_722               JUNCTION     0.00     0.00   373.66     0  00:00        0.00
  NL_724               JUNCTION     0.00     0.00   366.23     0  00:00        0.00
  NL_726               JUNCTION     0.00     0.00   367.08     0  00:00        0.00
  NL_728               JUNCTION     0.00     0.00   369.86     0  00:00        0.00
  NL_730               JUNCTION     0.00     0.00   369.60     0  00:00        0.00
  NL_732               JUNCTION     1.96     2.00   371.55     0  00:23        2.00
  NL_734               JUNCTION     0.43     0.62   375.99     0  07:59        0.62
  NL_736               JUNCTION     0.00     0.00   379.63     0  00:00        0.00
  NL_738               JUNCTION     0.00     0.00   380.00     0  00:00        0.00
  NL_740               JUNCTION     0.00     0.00   379.95     0  00:00        0.00
  NL_742               JUNCTION     0.00     0.00   382.88     0  00:00        0.00
  NL_744               JUNCTION     0.00     0.00   387.79     0  00:00        0.00
  NL_746               JUNCTION     0.00     0.00   394.54     0  00:00        0.00
  NL_748               JUNCTION     0.10     0.15   384.65     0  08:00        0.15
  NL_750               JUNCTION     1.92     2.00   377.80     0  00:50        2.00
  NL_752               JUNCTION     0.00     0.00   388.55     0  00:00        0.00
  NL_754               JUNCTION     0.00     0.00   378.48     0  00:00        0.00
  NL_756               JUNCTION     1.69     2.00   381.38     0  05:52        2.00
  NL_758               JUNCTION     0.00     0.00   390.42     0  00:00        0.00
  NL_760               JUNCTION     0.00     0.00   387.71     0  00:00        0.00
  NL_762               JUNCTION     0.00     0.00   388.03     0  00:00        0.00
  NL_764               JUNCTION     0.00     0.00   399.07     0  00:00        0.00
  NL_766               JUNCTION     0.00     0.00   408.67     0  00:00        0.00
  NL_768               JUNCTION     1.96     2.00   417.68     0  00:23        2.00
  NL_770               JUNCTION     1.16     1.33   326.84     0  07:00        1.32
  NL_772               JUNCTION     0.36     0.45   331.95     0  08:02        0.45
  NL_774               JUNCTION     0.24     0.28   332.37     0  10:42        0.28
  NL_776               JUNCTION     1.87     2.00   334.49     0  00:24        2.00
  NL_778               JUNCTION     0.65     0.95   335.45     0  07:59        0.95
  NL_780               JUNCTION     0.00     0.00   347.70     0  00:00        0.00
  NL_782               JUNCTION     0.44     0.44   350.44     0  00:00        0.44
  NL_784               JUNCTION     0.00     0.00   351.00     0  00:00        0.00
  NL_96                JUNCTION     1.00     2.00   330.96     0  07:53        2.00
  NL_98                JUNCTION     0.69     1.49   330.99     0  08:28        1.49
  94                   OUTFALL      0.00     0.00   100.00     0  00:00        0.00
  9006                 STORAGE      0.00     2.00   422.00     0  00:00        0.00
  9008                 STORAGE      0.00     0.00   420.00     0  00:00        0.00
  
  
  *******************
  Node Inflow Summary
  *******************
  
  -------------------------------------------------------------------------------------------------
                                  Maximum  Maximum                  Lateral       Total        Flow
                                  Lateral    Total  Time of Max      Inflow      Inflow     Balance
                                   Inflow   Inflow   Occurrence      Volume      Volume       Error
  Node                 Type           CFS      CFS  days hr:min    10^6 gal    10^6 gal     Percent
  -------------------------------------------------------------------------------------------------
  20                   JUNCTION      0.00     0.13     0  06:09           0     0.00462      60.808
  22                   JUNCTION      0.00     0.50     0  08:07           0      0.0668       3.433
  24                   JUNCTION      0.19     0.42     0  07:34      0.0285      0.0612       0.477
  26                   JUNCTION      0.11     0.11     0  07:00       0.017       0.017       0.585
  28                   JUNCTION      0.19     0.19     0  07:00      0.0289      0.0289       1.326
  30                   JUNCTION      0.59     0.59     0  07:00      0.0896      0.0896       1.399
  32                   JUNCTION      0.24     0.94     0  07:41       0.036       0.209       1.390
  34                   JUNCTION      2.15     2.15     0  07:00       0.326       0.326       0.260
  36                   JUNCTION      0.24     0.24     0  07:00      0.0358      0.0358       0.724
  38                   JUNCTION      0.77     0.77     0  07:00       0.117       0.117       0.683
  40                   JUNCTION      0.08     0.08     0  07:00      0.0122      0.0122       0.323
  42                   JUNCTION      0.11     0.68     0  07:31      0.0159       0.149       1.727
  44                   JUNCTION      0.89     0.89     0  07:00       0.135       0.135       0.147
  46                   JUNCTION      0.49     1.11     0  07:32      0.0736       0.159       0.974
  48                   JUNCTION      0.24     1.47     0  08:48      0.0318       0.182       1.000
  50                   JUNCTION      0.34     0.34     0  08:00      0.0454      0.0454       0.407
  52                   JUNCTION      1.23     1.23     0  08:00       0.165       0.165       0.327
  54                   JUNCTION      0.30     0.31     0  07:01       0.046       0.046       1.131
  56                   JUNCTION      0.72     0.97     0  07:00       0.109       0.179       0.558
  58                   JUNCTION      0.30     0.30     0  07:00      0.0448      0.0448       0.280
  60                   JUNCTION      0.81     1.26     0  07:49       0.123       0.184       0.336
  62                   JUNCTION      0.45     0.45     0  07:00      0.0689      0.0689       0.306
  64                   JUNCTION      0.23     0.23     0  07:03      0.0343      0.0349       2.061
  66                   JUNCTION      0.00     0.00     0  00:00           0           0       0.000 gal
  68                   JUNCTION      0.31     0.31     0  07:00      0.0466      0.0466       0.728
  70                   JUNCTION      0.60     0.60     0  07:00      0.0905      0.0905       0.193
  72                   JUNCTION      0.13     0.13     0  07:00      0.0195      0.0195       4.088
  74                   JUNCTION      0.20     0.20     0  07:00      0.0305      0.0305       0.216
  76                   JUNCTION      0.07     0.07     0  07:00      0.0107      0.0107       0.216
  78                   JUNCTION      0.26     0.26     0  07:00      0.0399      0.0399       1.837
  80                   JUNCTION      0.41     0.41     0  07:00      0.0617      0.0617       0.085
  82                   JUNCTION      0.28     0.28     0  07:02      0.0429       0.043       1.848
  84                   JUNCTION      0.13     0.13     0  07:00      0.0192      0.0192      10.795
  86                   JUNCTION      0.07     0.07     0  07:00      0.0112      0.0112       0.047
  88                   JUNCTION      0.34     0.34     0  07:00      0.0514      0.0514       0.104
  90                   JUNCTION      0.36     0.36     0  07:00      0.0548      0.0548       1.051
  92                   JUNCTION      0.18     0.18     0  07:02      0.0274      0.0274       0.196
  NL_100               JUNCTION      0.00     0.23     0  08:30           0       0.025       4.949
  NL_102               JUNCTION      0.00     1.24     0  08:03           0       0.163       0.498
  NL_104               JUNCTION      0.00     1.23     0  08:12           0       0.161       0.530
  NL_106               JUNCTION      0.00     1.23     0  08:35           0       0.159       0.516
  NL_108               JUNCTION      0.00     1.23     0  08:41           0       0.158       0.490
  NL_110               JUNCTION      0.00     1.23     0  08:43           0       0.156       0.506
  NL_112               JUNCTION      0.00     1.23     0  08:47           0       0.154       0.612
  NL_114               JUNCTION      0.00     1.23     0  08:53           0       0.153       0.568
  NL_116               JUNCTION      0.00     1.23     0  08:57           0       0.151       1.040
  NL_118               JUNCTION      0.00     1.26     0  08:28           0       0.158       0.833
  NL_120               JUNCTION      0.00     0.66     0  11:06           0      0.0884       1.569
  NL_122               JUNCTION      0.00     0.00     0  00:00           0           0       0.000 gal
  NL_124               JUNCTION      0.00     0.00     0  00:00           0           0       0.000 gal
  NL_126               JUNCTION      0.00     0.00     0  00:00           0           0       0.000 gal
  NL_128               JUNCTION      0.00     0.00     0  00:00           0           0       0.000 gal
  NL_130               JUNCTION      0.00     0.00     0  00:00           0           0       0.000 gal
  NL_132               JUNCTION      0.00     0.00     0  00:00           0           0       0.000 gal
  NL_134               JUNCTION      0.00     0.00     0  00:00           0           0       0.000 gal
  NL_136               JUNCTION      0.00     1.09     0  07:38           0       0.153       0.311
  NL_138               JUNCTION      0.00     1.09     0  07:44           0       0.152       1.254
  NL_140               JUNCTION      0.00     0.00     0  00:00           0           0       0.000 gal
  NL_142               JUNCTION      0.00     0.00     0  00:00           0           0       0.000 gal
  NL_144               JUNCTION      0.00     0.00     0  00:00           0           0       0.000 gal
  NL_146               JUNCTION      0.00     0.00     0  00:00           0           0       0.000 gal
  NL_148               JUNCTION      0.00     0.89     0  07:55           0       0.133       0.368
  NL_150               JUNCTION      0.00     0.44     0  06:07           0      0.0985       0.331
  NL_152               JUNCTION      0.00     0.43     0  06:35           0      0.0979       1.476
  NL_154               JUNCTION      0.00     0.43     0  08:03           0      0.0957       0.318
  NL_156               JUNCTION      0.00     0.77     0  07:37           0       0.115       0.226
  NL_158               JUNCTION      0.00     0.24     0  00:43           0     0.00153   10758.008
  NL_160               JUNCTION      0.00     0.00     0  00:00           0           0       0.000 gal
  NL_162               JUNCTION      0.00     0.00     0  00:00           0           0       0.000 gal
  NL_164               JUNCTION      0.00     0.00     0  00:00           0           0       0.000 gal
  NL_166               JUNCTION      0.00     0.00     0  00:00           0           0       0.000 gal
  NL_168               JUNCTION      0.00     0.00     0  00:00           0           0       0.000 gal
  NL_170               JUNCTION      0.00     0.00     0  00:00           0           0       0.000 gal
  NL_172               JUNCTION      0.00     0.08     0  08:00           0      0.0121       2.112
  NL_174               JUNCTION      0.00     0.08     0  08:00           0      0.0117       1.410
  NL_176               JUNCTION      0.00     0.08     0  08:07           0      0.0112       0.618
  NL_178               JUNCTION      0.00     0.00     0  00:00           0           0       0.000 gal
  NL_180               JUNCTION      0.00     0.00     0  00:00           0           0       0.000 gal
  NL_182               JUNCTION      0.00     0.00     0  00:00           0           0       0.000 gal
  NL_184               JUNCTION      0.00     0.13     0  06:09           0     0.00706      20.289
  NL_186               JUNCTION      0.00     0.42     0  07:47           0      0.0615       2.067
  NL_188               JUNCTION      0.00     0.42     0  08:04           0      0.0562       0.728
  NL_190               JUNCTION      0.00     0.42     0  08:02           0      0.0586       2.953
  NL_192               JUNCTION      0.00     0.42     0  07:48           0      0.0605       1.121
  NL_194               JUNCTION      0.00     0.24     0  07:09           0      0.0354       0.368
  NL_196               JUNCTION      0.00     0.24     0  07:18           0      0.0349       0.442
  NL_198               JUNCTION      0.00     0.24     0  07:31           0      0.0334       1.426
  NL_200               JUNCTION      0.00     0.00     0  08:42           0    0.000142     142.351 gal
  NL_202               JUNCTION      0.00     0.01     0  07:48           0     0.00104       0.960
  NL_204               JUNCTION      0.00     0.19     0  08:02           0      0.0273       0.829
  NL_206               JUNCTION      0.00     0.19     0  07:31           0      0.0284       1.535
  NL_208               JUNCTION      0.00     0.00     0  00:00           0           0       0.000 gal
  NL_210               JUNCTION      0.00     0.00     0  00:00           0           0       0.000 gal
  NL_212               JUNCTION      0.00     0.00     0  00:00           0           0       0.000 gal
  NL_214               JUNCTION      0.00     0.00     0  00:00           0           0       0.000 gal
  NL_216               JUNCTION      0.00     0.70     0  08:14           0       0.174       0.258
  NL_218               JUNCTION      0.00     0.70     0  08:12           0       0.175       0.433
  NL_220               JUNCTION      0.00     0.70     0  07:05           0       0.177       0.758
  NL_222               JUNCTION      0.00     0.70     0  07:04           0        0.18       0.727
  NL_224               JUNCTION      0.00     0.70     0  06:23           0       0.183       1.004
  NL_226               JUNCTION      0.00     1.44     0  06:47           0       0.294       0.756
  NL_228               JUNCTION      0.00     1.68     0  07:28           0       0.311       0.294
  NL_230               JUNCTION      0.00     0.14     0  01:33           0      0.0401       0.668
  NL_232               JUNCTION      0.00     0.19     0  01:21           0      0.0413       2.059
  NL_234               JUNCTION      0.00     0.97     0  07:48           0       0.171       0.996
  NL_236               JUNCTION      0.00     0.97     0  08:00           0       0.174       0.682
  NL_238               JUNCTION      0.00     0.97     0  08:00           0       0.175       0.340
  NL_240               JUNCTION      0.00     0.97     0  07:24           0       0.177       0.493
  NL_242               JUNCTION      0.00     0.25     0  05:34           0      0.0708       0.481
  NL_244               JUNCTION      0.00     0.25     0  05:20           0      0.0716       0.717
  NL_246               JUNCTION      0.00     1.26     0  07:31           0        0.18       1.202
  NL_248               JUNCTION      0.00     1.26     0  07:51           0       0.182       1.070
  NL_250               JUNCTION      0.00     0.46     0  07:10           0      0.0622       1.264
  NL_252               JUNCTION      0.00     0.46     0  07:10           0      0.0652       2.376
  NL_254               JUNCTION      0.00     0.46     0  07:09           0      0.0684       2.248
  NL_256               JUNCTION      0.00     0.00     0  00:00           0           0       0.000 gal
  NL_258               JUNCTION      0.00     0.00     0  00:00           0           0       0.000 gal
  NL_260               JUNCTION      0.00     0.30     0  07:39           0      0.0427       4.492
  NL_262               JUNCTION      0.00     0.30     0  07:19           0      0.0438       1.245
  NL_264               JUNCTION      0.00     0.30     0  07:14           0      0.0441       0.413
  NL_266               JUNCTION      0.00     0.30     0  07:09           0      0.0445       0.378
  NL_268               JUNCTION      0.00     0.00     0  00:00           0           0       0.000 gal
  NL_270               JUNCTION      0.00     0.00     0  00:00           0           0       0.000 gal
  NL_272               JUNCTION      0.00     0.00     0  00:00           0           0       0.000 gal
  NL_274               JUNCTION      0.00     0.00     0  00:00           0           0       0.000 gal
  NL_276               JUNCTION      0.00     0.00     0  00:00           0           0       0.000 gal
  NL_278               JUNCTION      0.00     0.00     0  00:00           0           0       0.000 gal
  NL_280               JUNCTION      0.00     0.00     0  00:00           0           0       0.000 gal
  NL_282               JUNCTION      0.00     0.00     0  00:00           0           0       0.000 gal
  NL_284               JUNCTION      0.00     0.00     0  00:00           0           0       0.000 gal
  NL_286               JUNCTION      0.00    10.83     0  00:00           0    0.000844      22.042
  NL_288               JUNCTION      0.00     0.00     0  00:00           0           0       0.000 gal
  NL_290               JUNCTION      0.00     0.00     0  00:00           0           0       0.000 gal
  NL_292               JUNCTION      0.00     0.00     0  00:00           0           0       0.000 gal
  NL_294               JUNCTION      0.00     0.00     0  00:00           0           0       0.000 gal
  NL_296               JUNCTION      0.00     0.00     0  00:00           0           0       0.000 gal
  NL_298               JUNCTION      0.00     0.00     0  00:00           0           0       0.000 gal
  NL_300               JUNCTION      0.00     0.07     0  07:01           0      0.0111       0.114
  NL_302               JUNCTION      0.00     0.13     0  07:39           0      0.0172       6.577
  NL_304               JUNCTION      0.00     0.13     0  07:27           0      0.0149       9.194
  NL_306               JUNCTION      0.00     0.13     0  07:48           0      0.0135       8.656
  NL_308               JUNCTION      0.00     0.00     0  00:00           0           0       0.000 gal
  NL_310               JUNCTION      0.00     0.00     0  00:00           0           0       0.000 gal
  NL_312               JUNCTION      0.00     0.00     0  00:00           0           0       0.000 gal
  NL_314               JUNCTION      0.00     0.12     0  07:58           0       0.018       7.220
  NL_316               JUNCTION      0.00     0.12     0  07:54           0      0.0181       0.420
  NL_318               JUNCTION      0.00     0.12     0  07:38           0      0.0182       0.177
  NL_320               JUNCTION      0.00     0.05     0  01:19           0     0.00134    4801.305
  NL_322               JUNCTION      0.00     0.00     0  00:00           0           0       0.000 gal
  NL_324               JUNCTION      0.00     0.36     0  07:03           0      0.0541       0.164
  NL_326               JUNCTION      0.00     0.00     0  00:00           0           0       0.000 gal
  NL_328               JUNCTION      0.00     0.00     0  00:00           0           0       0.000 gal
  NL_330               JUNCTION      0.00     0.09     0  01:08           0      0.0012    1196.916 gal
  NL_332               JUNCTION      0.00     0.31     0  07:46           0      0.0445       2.611
  NL_334               JUNCTION      0.00     0.31     0  08:00           0      0.0462       0.303
  NL_336               JUNCTION      0.00     0.00     0  00:00           0           0       0.000 gal
  NL_338               JUNCTION      0.00     0.00     0  00:00           0           0       0.000 gal
  NL_340               JUNCTION      0.00     0.00     0  00:00           0           0       0.000 gal
  NL_342               JUNCTION      0.00     0.00     0  00:00           0           0       0.000 gal
  NL_344               JUNCTION      0.00     0.00     0  00:00           0           0       0.000 gal
  NL_346               JUNCTION      0.00     0.00     0  00:00           0           0       0.000 gal
  NL_348               JUNCTION      0.00     0.00     0  00:00           0           0       0.000 gal
  NL_350               JUNCTION      0.00     0.00     0  00:00           0           0       0.000 gal
  NL_352               JUNCTION      0.00     0.00     0  00:00           0           0       0.000 gal
  NL_354               JUNCTION      0.00     0.60     0  07:59           0      0.0898       0.187
  NL_356               JUNCTION      0.00     0.00     0  00:00           0           0       0.000 gal
  NL_358               JUNCTION      0.00     0.00     0  00:00           0           0       0.000 gal
  NL_360               JUNCTION      0.00     0.00     0  00:00           0           0       0.000 gal
  NL_362               JUNCTION      0.00     0.13     0  07:00           0      0.0188      11.868
  NL_364               JUNCTION      0.00     0.00     0  00:00           0           0       0.000 gal
  NL_366               JUNCTION      0.00     0.00     0  00:00           0           0       0.000 gal
  NL_368               JUNCTION      0.00     0.00     0  00:00           0           0       0.000 gal
  NL_370               JUNCTION      0.00     0.04     0  02:35           0     0.00124    6382.732
  NL_372               JUNCTION      0.00     0.00     0  00:00           0           0       0.000 gal
  NL_374               JUNCTION      0.00     0.00     0  00:00           0           0       0.000 gal
  NL_376               JUNCTION      0.00     0.00     0  00:00           0           0       0.000 gal
  NL_378               JUNCTION      0.00     0.00     0  00:00           0           0       0.000 gal
  NL_380               JUNCTION      0.00     0.00     0  00:00           0           0       0.000 gal
  NL_382               JUNCTION      0.00     0.00     0  00:00           0           0       0.000 gal
  NL_384               JUNCTION      0.00     0.00     0  00:00           0           0       0.000 gal
  NL_386               JUNCTION      0.00     0.00     0  00:00           0           0       0.000 gal
  NL_388               JUNCTION      0.00     0.00     0  00:00           0           0       0.000 gal
  NL_390               JUNCTION      0.00     0.20     0  07:40           0      0.0304       1.158
  NL_392               JUNCTION      0.00     0.20     0  08:00           0        0.03       0.154
  NL_394               JUNCTION      0.00     0.00     0  00:00           0           0       0.000 gal
  NL_396               JUNCTION      0.00     0.00     0  00:00           0           0       0.000 gal
  NL_398               JUNCTION      0.00     0.00     0  00:00           0           0       0.000 gal
  NL_400               JUNCTION      0.00     0.02     0  05:44           0     0.00152     510.672
  NL_402               JUNCTION      0.00     0.00     0  00:00           0           0       0.000 gal
  NL_404               JUNCTION      0.00     0.00     0  00:00           0           0       0.000 gal
  NL_406               JUNCTION      0.00     0.00     0  00:00           0           0       0.000 gal
  NL_408               JUNCTION      0.00     0.00     0  00:00           0           0       0.000 gal
  NL_410               JUNCTION      0.00     0.00     0  00:00           0           0       0.000 gal
  NL_412               JUNCTION      0.00     0.00     0  00:00           0           0       0.000 gal
  NL_414               JUNCTION      0.00     0.08     0  06:09           0     0.00162     418.030
  NL_416               JUNCTION      0.00     0.05     0  06:09           0    0.000699     202.481
  NL_418               JUNCTION      0.00     0.00     0  00:00           0           0       0.000 gal
  NL_420               JUNCTION      0.00     0.00     0  00:00           0           0       0.000 gal
  NL_422               JUNCTION      0.00     0.00     0  00:00           0           0       0.000 gal
  NL_424               JUNCTION      0.00     0.00     0  00:00           0           0       0.000 gal
  NL_426               JUNCTION      0.00     0.00     0  00:00           0           0       0.000 gal
  NL_428               JUNCTION      0.00     0.01     0  00:43           0    3.07e-06      -0.106 gal
  NL_430               JUNCTION      0.00     0.77     0  07:10           0       0.115       1.364
  NL_432               JUNCTION      0.00     0.78     0  07:00           0       0.116       0.876
  NL_434               JUNCTION      0.00     0.13     0  06:09           0     0.00584      25.772
  NL_436               JUNCTION      0.00     0.13     0  06:09           0     0.00832      17.588
  NL_438               JUNCTION      0.00     0.50     0  08:07           0      0.0645       2.154
  NL_440               JUNCTION      0.00     0.42     0  08:06           0      0.0558       0.347
  NL_442               JUNCTION      0.00     0.42     0  08:03           0      0.0569       1.256
  NL_444               JUNCTION      0.00     0.42     0  08:01           0      0.0598       1.968
  NL_446               JUNCTION      0.00     0.42     0  07:40           0      0.0609       0.773
  NL_448               JUNCTION      0.00     0.24     0  07:32           0      0.0329       0.556
  NL_450               JUNCTION      0.00     0.24     0  07:27           0      0.0348       4.155
  NL_452               JUNCTION      0.00     0.24     0  07:11           0      0.0353       0.936
  NL_454               JUNCTION      0.00     0.24     0  07:07           0      0.0355       0.415
  NL_456               JUNCTION      0.00     0.08     0  08:09           0      0.0112       0.629
  NL_458               JUNCTION      0.00     0.08     0  08:02           0      0.0116       2.911
  NL_460               JUNCTION      0.00     0.08     0  07:57           0      0.0118       0.679
  NL_462               JUNCTION      0.00     0.08     0  07:59           0      0.0121       0.611
  NL_464               JUNCTION      0.00     0.00     0  00:00           0           0       0.000 gal
  NL_466               JUNCTION      0.00     0.01     0  07:58           0     0.00103     626.048
  NL_468               JUNCTION      0.00     0.01     0  07:23           0     0.00108       3.611
  NL_470               JUNCTION      0.00     0.29     0  08:00           0      0.0429       6.177
  NL_472               JUNCTION      0.00     0.19     0  08:00           0      0.0279       2.290
  NL_474               JUNCTION      0.00     0.19     0  07:25           0      0.0285       0.630
  NL_476               JUNCTION      0.00     0.00     0  00:00           0           0       0.000 gal
  NL_478               JUNCTION      0.00     0.00     0  00:00           0           0       0.000 gal
  NL_480               JUNCTION      0.00     0.00     0  00:00           0           0       0.000 gal
  NL_482               JUNCTION      0.00     0.00     0  00:00           0           0       0.000 gal
  NL_484               JUNCTION      0.00     0.00     0  00:00           0           0       0.000 gal
  NL_486               JUNCTION      0.00     0.00     0  00:00           0           0       0.000 gal
  NL_488               JUNCTION      0.00     0.70     0  08:15           0       0.173       0.289
  NL_490               JUNCTION      0.00     0.70     0  08:13           0       0.174       0.229
  NL_492               JUNCTION      0.00     0.70     0  08:11           0       0.176       0.313
  NL_494               JUNCTION      0.00     0.70     0  07:05           0       0.178       0.789
  NL_496               JUNCTION      0.00     0.70     0  06:23           0       0.181       0.670
  NL_498               JUNCTION      0.00     0.71     0  06:04           0       0.184       0.593
  NL_500               JUNCTION      0.00     1.68     0  08:26           0        0.31       0.615
  NL_502               JUNCTION      0.00     1.68     0  07:30           0       0.312       0.288
  NL_504               JUNCTION      0.00     0.00     0  00:00           0           0       0.000 gal
  NL_506               JUNCTION      0.00     0.68     0  07:00           0       0.147       1.002
  NL_508               JUNCTION      0.00     0.14     0  01:39           0      0.0398       0.611
  NL_510               JUNCTION      0.00     0.15     0  01:23           0      0.0405       0.884
  NL_512               JUNCTION      0.00     0.97     0  07:46           0        0.17       1.063
  NL_514               JUNCTION      0.00     0.97     0  07:38           0       0.173       0.873
  NL_516               JUNCTION      0.00     0.97     0  08:00           0       0.174       0.219
  NL_518               JUNCTION      0.00     0.97     0  08:00           0       0.176       0.867
  NL_520               JUNCTION      0.00     0.97     0  07:58           0       0.178       0.496
  NL_522               JUNCTION      0.00     0.00     0  00:00           0           0       0.000 gal
  NL_524               JUNCTION      0.00     0.00     0  00:00           0           0       0.000 gal
  NL_526               JUNCTION      0.00     0.00     0  00:00           0           0       0.000 gal
  NL_528               JUNCTION      0.00     0.00     0  00:00           0           0       0.000 gal
  NL_530               JUNCTION      0.00     0.00     0  00:00           0           0       0.000 gal
  NL_532               JUNCTION      0.00     1.09     0  07:42           0       0.153       0.442
  NL_534               JUNCTION      0.00     1.09     0  07:46           0       0.154       0.325
  NL_536               JUNCTION      0.00     0.00     0  00:00           0           0       0.000 gal
  NL_538               JUNCTION      0.00     0.00     0  00:00           0           0       0.000 gal
  NL_540               JUNCTION      0.00     0.00     0  00:00           0           0       0.000 gal
  NL_542               JUNCTION      0.00     0.00     0  00:00           0           0       0.000 gal
  NL_544               JUNCTION      0.00     0.00     0  00:00           0           0       0.000 gal
  NL_546               JUNCTION      0.00     0.00     0  00:00           0           0       0.000 gal
  NL_548               JUNCTION      0.00     0.00     0  00:00           0           0       0.000 gal
  NL_550               JUNCTION      0.00     0.10     0  00:41           0     0.00147    3616.113
  NL_552               JUNCTION      0.00     0.66     0  11:06           0      0.0885       1.626
  NL_554               JUNCTION      0.00     1.26     0  08:29           0       0.158       0.912
  NL_556               JUNCTION      0.00     1.26     0  08:28           0       0.159       0.730
  NL_558               JUNCTION      0.00     0.22     0  08:25           0      0.0239       3.098
  NL_560               JUNCTION      0.00     0.23     0  08:30           0      0.0263       4.999
  NL_562               JUNCTION      0.00     0.25     0  07:05           0      0.0285       3.954
  NL_564               JUNCTION      0.00     0.34     0  09:15           0      0.0452       1.620
  NL_566               JUNCTION      0.00     1.23     0  08:48           0       0.149       1.043
  NL_568               JUNCTION      0.00     1.23     0  08:55           0       0.152       0.590
  NL_570               JUNCTION      0.00     1.23     0  08:54           0       0.154       0.592
  NL_572               JUNCTION      0.00     1.23     0  08:45           0       0.155       0.522
  NL_574               JUNCTION      0.00     1.23     0  08:43           0       0.157       0.484
  NL_576               JUNCTION      0.00     1.23     0  08:38           0       0.158       0.570
  NL_578               JUNCTION      0.00     1.23     0  08:30           0        0.16       0.616
  NL_580               JUNCTION      0.00     1.23     0  08:27           0       0.162       0.585
  NL_582               JUNCTION      0.00     1.24     0  08:05           0       0.164       0.706
  NL_584               JUNCTION      0.00     0.30     0  08:00           0      0.0432       2.205
  NL_586               JUNCTION      0.00     0.09     0  01:10           0     0.00126     181.260
  NL_588               JUNCTION      0.00     0.00     0  00:00           0           0       0.000 gal
  NL_590               JUNCTION      0.00     0.00     0  00:00           0           0       0.000 gal
  NL_592               JUNCTION      0.00     0.25     0  05:37           0      0.0704       0.536
  NL_594               JUNCTION      0.00     0.25     0  05:29           0      0.0711       0.464
  NL_596               JUNCTION      0.00     0.28     0  05:16           0      0.0728       1.637
  NL_598               JUNCTION      0.00     1.26     0  07:51           0        0.18       0.397
  NL_600               JUNCTION      0.00     1.26     0  07:51           0       0.184       0.757
  NL_602               JUNCTION      0.00     0.45     0  07:48           0      0.0614       0.242
  NL_604               JUNCTION      0.00     0.46     0  07:10           0      0.0636       2.321
  NL_606               JUNCTION      0.00     0.46     0  07:10           0      0.0667       2.422
  NL_608               JUNCTION      0.00     0.46     0  07:06           0      0.0687       0.407
  NL_610               JUNCTION      0.00     0.30     0  07:16           0      0.0439       0.409
  NL_612               JUNCTION      0.00     0.30     0  07:12           0      0.0443       0.387
  NL_614               JUNCTION      0.00     0.30     0  07:33           0      0.0446       0.370
  NL_616               JUNCTION      0.00     0.00     0  00:00           0           0       0.000 gal
  NL_618               JUNCTION      0.00     0.00     0  00:00           0           0       0.000 gal
  NL_620               JUNCTION      0.00     0.00     0  00:00           0           0       0.000 gal
  NL_622               JUNCTION      0.00     0.00     0  00:00           0           0       0.000 gal
  NL_624               JUNCTION      0.00     0.00     0  00:00           0           0       0.000 gal
  NL_626               JUNCTION      0.00     0.00     0  00:00           0           0       0.000 gal
  NL_628               JUNCTION      0.00     0.07     0  00:22           0    0.000957      68.855
  NL_630               JUNCTION      0.00     0.00     0  00:00           0           0       0.000 gal
  NL_632               JUNCTION      0.00     0.00     0  00:00           0           0       0.000 gal
  NL_634               JUNCTION      0.00     0.00     0  00:00           0           0       0.000 gal
  NL_636               JUNCTION      0.00     0.00     0  00:00           0           0       0.000 gal
  NL_638               JUNCTION      0.00     0.00     0  00:00           0           0       0.000 gal
  NL_640               JUNCTION      0.00     1.17     0  00:00           0    0.000691     691.422 gal
  NL_644               JUNCTION      0.00     0.13     0  07:01           0      0.0173       0.357
  NL_646               JUNCTION      0.00     0.00     0  00:00           0           0       0.000 gal
  NL_648               JUNCTION      0.00     0.00     0  00:00           0           0       0.000 gal
  NL_650               JUNCTION      0.00     0.00     0  00:00           0           0       0.000 gal
  NL_654               JUNCTION      0.00     0.00     0  00:00           0           0       0.000 gal
  NL_656               JUNCTION      0.00     0.07     0  07:14           0      0.0111      10.244
  NL_658               JUNCTION      0.00     0.07     0  07:01           0      0.0111       0.075
  NL_660               JUNCTION      0.00     0.13     0  07:32           0      0.0162       8.760
  NL_662               JUNCTION      0.00     0.13     0  07:45           0      0.0136       0.618
  NL_664               JUNCTION      0.00     0.21     0  07:20           0      0.0125       8.793
  NL_666               JUNCTION      0.00     0.00     0  00:00           0           0       0.000 gal
  NL_668               JUNCTION      0.00     0.00     0  00:00           0           0       0.000 gal
  NL_670               JUNCTION      0.00     0.00     0  00:00           0           0       0.000 gal
  NL_672               JUNCTION      0.00     0.12     0  08:00           0       0.018       0.182
  NL_674               JUNCTION      0.00     0.12     0  07:37           0      0.0182       0.360
  NL_676               JUNCTION      0.00     0.12     0  07:49           0      0.0182       0.182
  NL_678               JUNCTION      0.00     0.22     0  07:03           0      0.0331       4.348
  NL_680               JUNCTION      0.00     0.00     0  00:00           0           0       0.000 gal
  NL_682               JUNCTION      0.00     0.36     0  07:05           0       0.054       2.474
  NL_684               JUNCTION      0.00     0.36     0  07:00           0      0.0542       0.257
  NL_686               JUNCTION      0.00     0.00     0  00:00           0           0       0.000 gal
  NL_688               JUNCTION      0.00     0.00     0  00:00           0           0       0.000 gal
  NL_690               JUNCTION      0.00     0.00     0  00:00           0           0       0.000 gal
  NL_692               JUNCTION      0.00     0.31     0  07:59           0      0.0434       3.074
  NL_694               JUNCTION      0.00     0.31     0  08:00           0      0.0461       3.526
  NL_696               JUNCTION      0.00     0.31     0  08:00           0      0.0463       0.222
  NL_698               JUNCTION      0.00     0.00     0  00:00           0           0       0.000 gal
  NL_700               JUNCTION      0.00     0.00     0  00:00           0           0       0.000 gal
  NL_702               JUNCTION      0.00     0.18     0  07:16           0      0.0264       5.455
  NL_704               JUNCTION      0.00     0.02     0  00:01           0    0.000937    2978.819
  NL_706               JUNCTION      0.00     0.00     0  00:00           0           0       0.000 gal
  NL_708               JUNCTION      0.00     0.00     0  00:00           0           0       0.000 gal
  NL_710               JUNCTION      0.00     0.00     0  00:00           0           0       0.000 gal
  NL_712               JUNCTION      0.00     0.09     0  00:40           0     0.00153    6713.103
  NL_714               JUNCTION      0.00     0.00     0  00:00           0           0       0.000 gal
  NL_716               JUNCTION      0.00     0.00     0  00:00           0           0       0.000 gal
  NL_718               JUNCTION      0.00     0.00     0  00:00           0           0       0.000 gal
  NL_720               JUNCTION      0.00     0.00     0  00:00           0           0       0.000 gal
  NL_722               JUNCTION      0.00     0.00     0  00:00           0           0       0.000 gal
  NL_724               JUNCTION      0.00     0.00     0  00:00           0           0       0.000 gal
  NL_726               JUNCTION      0.00     0.00     0  00:00           0           0       0.000 gal
  NL_728               JUNCTION      0.00     0.00     0  00:00           0           0       0.000 gal
  NL_730               JUNCTION      0.00     0.00     0  00:00           0           0       0.000 gal
  NL_732               JUNCTION      0.00     0.60     0  07:54           0      0.0896       1.558
  NL_734               JUNCTION      0.00     0.60     0  07:29           0      0.0903       0.603
  NL_736               JUNCTION      0.00     0.00     0  00:00           0           0       0.000 gal
  NL_738               JUNCTION      0.00     0.00     0  00:00           0           0       0.000 gal
  NL_740               JUNCTION      0.00     0.00     0  00:00           0           0       0.000 gal
  NL_742               JUNCTION      0.00     0.00     0  00:00           0           0       0.000 gal
  NL_744               JUNCTION      0.00     0.00     0  00:00           0           0       0.000 gal
  NL_746               JUNCTION      0.00     0.00     0  00:00           0           0       0.000 gal
  NL_748               JUNCTION      0.00     0.20     0  08:00           0      0.0301       0.189
  NL_750               JUNCTION      0.00     0.20     0  08:00           0        0.03       3.777
  NL_752               JUNCTION      0.00     0.00     0  00:00           0           0       0.000 gal
  NL_754               JUNCTION      0.00     0.00     0  00:00           0           0       0.000 gal
  NL_756               JUNCTION      0.00     0.08     0  07:10           0       0.011      12.142
  NL_758               JUNCTION      0.00     0.00     0  00:00           0           0       0.000 gal
  NL_760               JUNCTION      0.00     0.00     0  00:00           0           0       0.000 gal
  NL_762               JUNCTION      0.00     0.00     0  00:00           0           0       0.000 gal
  NL_764               JUNCTION      0.00     0.00     0  00:00           0           0       0.000 gal
  NL_766               JUNCTION      0.00     0.00     0  00:00           0           0       0.000 gal
  NL_768               JUNCTION      0.00     0.41     0  07:01           0      0.0616       2.196
  NL_770               JUNCTION      0.00     0.43     0  07:13           0      0.0955       1.830
  NL_772               JUNCTION      0.00     0.43     0  06:14           0      0.0965       0.763
  NL_774               JUNCTION      0.00     0.43     0  06:10           0      0.0981       0.258
  NL_776               JUNCTION      0.00     0.89     0  07:55           0       0.133       1.356
  NL_778               JUNCTION      0.00     0.89     0  07:21           0       0.135       0.882
  NL_780               JUNCTION      0.00     0.00     0  00:00           0           0       0.000 gal
  NL_782               JUNCTION      0.00    20.00     0  00:00           0      0.0021    2098.388 gal
  NL_784               JUNCTION      0.00     0.00     0  00:00           0           0       0.000 gal
  NL_96                JUNCTION      0.00     0.57     0  08:31           0      0.0657       1.795
  NL_98                JUNCTION      0.00     0.23     0  08:30           0      0.0275       4.538
  94                   OUTFALL       0.00     0.00     0  00:00           0           0       0.000 gal
  9006                 STORAGE       0.00     0.00     0  00:00           0    0.000752     -74.442
  9008                 STORAGE       0.00     0.00     0  00:00           0           0       0.000 gal
  
  
  **********************
  Node Surcharge Summary
  **********************
  
  Surcharging occurs when water rises above the top of the highest conduit.
  ---------------------------------------------------------------------
                                               Max. Height   Min. Depth
                                   Hours       Above Crown    Below Rim
  Node                 Type      Surcharged           Feet         Feet
  ---------------------------------------------------------------------
  20                   JUNCTION        7.04          0.672        0.328
  22                   JUNCTION        5.88          0.199        0.801
  30                   JUNCTION       11.76          1.000        0.000
  32                   JUNCTION       11.07          1.000        0.000
  34                   JUNCTION        5.99          1.000        0.000
  38                   JUNCTION        5.99          0.643        0.357
  42                   JUNCTION       10.64          0.435        0.565
  48                   JUNCTION        4.28          0.472        0.528
  52                   JUNCTION        3.99          0.228        0.772
  54                   JUNCTION       11.40          1.000        0.000
  64                   JUNCTION       11.65          1.000        0.000
  72                   JUNCTION        8.69          0.679        0.321
  78                   JUNCTION       11.70          1.000        0.000
  82                   JUNCTION       11.34          1.000        0.000
  84                   JUNCTION        9.98          0.206        0.794
  90                   JUNCTION       11.82          0.355        0.645
  NL_100               JUNCTION        3.69          0.064        0.936
  NL_116               JUNCTION        3.59          0.350        0.650
  NL_118               JUNCTION        4.52          0.738        0.262
  NL_120               JUNCTION        4.49          0.113        0.887
  NL_138               JUNCTION       11.00          1.000        0.000
  NL_152               JUNCTION       11.33          0.388        0.612
  NL_158               JUNCTION       11.28          0.154        0.846
  NL_184               JUNCTION        7.40          0.788        0.212
  NL_186               JUNCTION        8.03          1.000        0.000
  NL_190               JUNCTION        5.60          0.297        0.703
  NL_222               JUNCTION        5.62          0.018        0.982
  NL_224               JUNCTION        6.27          0.206        0.794
  NL_226               JUNCTION       11.73          1.000        0.000
  NL_234               JUNCTION        5.73          0.264        0.736
  NL_236               JUNCTION        1.91          0.393        0.607
  NL_246               JUNCTION       11.37          1.000        0.000
  NL_248               JUNCTION        1.92          0.470        0.530
  NL_252               JUNCTION        9.94          0.538        0.462
  NL_254               JUNCTION       10.29          1.000        0.000
  NL_260               JUNCTION       10.85          1.000        0.000
  NL_304               JUNCTION        5.63          0.186        0.814
  NL_314               JUNCTION       10.71          1.000        0.000
  NL_320               JUNCTION       10.40          0.686        0.314
  NL_330               JUNCTION        9.46          0.032        0.968
  NL_362               JUNCTION        9.10          1.000        0.000
  NL_370               JUNCTION        9.13          0.759        0.241
  NL_430               JUNCTION       11.51          1.000        0.000
  NL_434               JUNCTION        7.39          0.790        0.210
  NL_436               JUNCTION        7.97          0.988        0.012
[...]
  593                     1.00   0.05  0.00  0.00  0.95  0.00  0.00  0.00  0.00  0.00
  595                     1.00   0.00  0.00  0.00  0.99  0.00  0.00  0.00  0.98  0.00
  597                     1.00   0.00  0.00  0.00  1.00  0.00  0.00  0.00  0.67  0.00
  599                     1.00   0.00  0.15  0.00  0.85  0.00  0.00  0.00  0.85  0.00
  601                     1.00   0.03  0.12  0.00  0.86  0.00  0.00  0.00  0.00  0.00
  603                     1.00   0.00  0.02  0.00  0.98  0.00  0.00  0.00  0.00  0.00
  605                     1.00   0.00  0.00  0.00  1.00  0.00  0.00  0.00  0.99  0.00
  607                     1.00   0.00  0.00  0.00  1.00  0.00  0.00  0.00  0.98  0.00
  609                     1.00   0.00  0.00  0.00  1.00  0.00  0.00  0.00  0.00  0.00
  61                      1.00   0.50  0.00  0.00  0.50  0.00  0.00  0.00  0.07  0.00
  611                     1.00   0.00  0.00  0.00  1.00  0.00  0.00  0.00  0.07  0.00
  613                     1.00   0.00  1.00  0.00  0.00  0.00  0.00  0.00  0.00  0.00
  615                    70.44   1.00  0.00  0.00  0.00  0.00  0.00  0.00  0.00  0.00
  617                     1.00   1.00  0.00  0.00  0.00  0.00  0.00  0.00  0.00  0.00
  619                     1.00   1.00  0.00  0.00  0.00  0.00  0.00  0.00  0.00  0.00
  621                     1.00   1.00  0.00  0.00  0.00  0.00  0.00  0.00  0.00  0.00
  623                     1.00   1.00  0.00  0.00  0.00  0.00  0.00  0.00  0.00  0.00
  625                     1.00   0.03  0.97  0.00  0.00  0.00  0.00  0.00  0.00  0.00
  627                     1.00   1.00  0.00  0.00  0.00  0.00  0.00  0.00  0.00  0.00
  629                     1.00   1.00  0.00  0.00  0.00  0.00  0.00  0.00  0.00  0.00
  63                      1.00   0.00  0.00  0.00  1.00  0.00  0.00  0.00  0.00  0.00
  631                     1.00   1.00  0.00  0.00  0.00  0.00  0.00  0.00  0.00  0.00
  633                     1.00   1.00  0.00  0.00  0.00  0.00  0.00  0.00  0.00  0.00
  635                     1.00   1.00  0.00  0.00  0.00  0.00  0.00  0.00  0.00  0.00
  637                     1.00   0.00  0.00  0.00  1.00  0.00  0.00  0.00  1.00  0.00
  641                     1.00   0.00  0.17  0.00  0.83  0.00  0.00  0.00  0.00  0.00
  643                     1.00   0.00  1.00  0.00  0.00  0.00  0.00  0.00  0.00  0.00
  645                     1.00   1.00  0.00  0.00  0.00  0.00  0.00  0.00  0.00  0.00
  647                     1.00   1.00  0.00  0.00  0.00  0.00  0.00  0.00  0.00  0.00
  65                      1.00   0.00  0.00  0.00  1.00  0.00  0.00  0.00  0.00  0.00
  651                     1.00   1.00  0.00  0.00  0.00  0.00  0.00  0.00  0.00  0.00
  653                     1.00   0.00  1.00  0.00  0.00  0.00  0.00  0.00  0.00  0.00
  655                     1.02   0.00  0.00  0.00  0.00  1.00  0.00  0.00  1.00  0.00
  657                     1.00   0.17  0.00  0.00  0.83  0.00  0.00  0.00  0.23  0.00
  659                     1.00   0.28  0.25  0.00  0.47  0.00  0.00  0.00  0.00  0.00
  661                     1.00   0.53  0.00  0.00  0.47  0.00  0.00  0.00  0.04  0.00
  663                     1.00   1.00  0.00  0.00  0.00  0.00  0.00  0.00  0.00  0.00
  665                     1.00   1.00  0.00  0.00  0.00  0.00  0.00  0.00  0.00  0.00
  667                     1.00   1.00  0.00  0.00  0.00  0.00  0.00  0.00  0.00  0.00
  669                     1.00   0.00  0.00  0.00  1.00  0.00  0.00  0.00  0.99  0.00
  67                      1.00   0.00  0.00  0.00  1.00  0.00  0.00  0.00  0.07  0.00
  671                     1.00   0.00  0.00  0.00  0.99  0.01  0.00  0.00  0.99  0.00
  673                     1.00   0.00  0.00  0.00  0.00  1.00  0.00  0.00  0.99  0.00
  675                     1.00   0.00  0.00  0.00  0.99  0.01  0.00  0.00  1.00  0.00
  677                     1.00   0.02  0.98  0.00  0.00  0.00  0.00  0.00  0.00  0.00
  679                     1.00   0.01  0.99  0.00  0.00  0.00  0.00  0.00  0.00  0.00
  681                     1.00   0.01  0.00  0.00  0.00  0.98  0.00  0.00  0.00  0.00
  683                     1.00   1.00  0.00  0.00  0.00  0.00  0.00  0.00  0.00  0.00
  685                     1.00   1.00  0.00  0.00  0.00  0.00  0.00  0.00  0.00  0.00
  687                     1.00   1.00  0.00  0.00  0.00  0.00  0.00  0.00  0.00  0.00
  689                     1.00   0.04  0.05  0.00  0.91  0.00  0.00  0.00  0.00  0.00
  69                      1.00   0.00  0.00  0.00  0.97  0.03  0.00  0.00  1.00  0.00
  691                     1.00   0.00  0.04  0.00  0.96  0.00  0.00  0.00  0.00  0.00
  693                     1.00   0.00  0.00  0.00  0.00  1.00  0.00  0.00  1.00  0.00
  695                     1.00   1.00  0.00  0.00  0.00  0.00  0.00  0.00  0.00  0.00
  697                     1.00   1.00  0.00  0.00  0.00  0.00  0.00  0.00  0.00  0.00
  699                     1.00   0.00  0.02  0.00  0.98  0.00  0.00  0.00  0.00  0.00
  701                     1.00   0.00  0.00  0.00  1.00  0.00  0.00  0.00  0.14  0.00
  703                     1.00   1.00  0.00  0.00  0.00  0.00  0.00  0.00  0.00  0.00
  705                     1.00   1.00  0.00  0.00  0.00  0.00  0.00  0.00  0.00  0.00
  707                     1.00   1.00  0.00  0.00  0.00  0.00  0.00  0.00  0.00  0.00
  709                     1.00   0.01  0.99  0.00  0.00  0.00  0.00  0.00  0.00  0.00
  71                      1.00   0.00  0.00  0.00  1.00  0.00  0.00  0.00  0.00  0.00
  711                     1.00   0.00  1.00  0.00  0.00  0.00  0.00  0.00  0.00  0.00
  713                     1.00   1.00  0.00  0.00  0.00  0.00  0.00  0.00  0.00  0.00
  715                     1.00   1.00  0.00  0.00  0.00  0.00  0.00  0.00  0.00  0.00
  717                     1.00   1.00  0.00  0.00  0.00  0.00  0.00  0.00  0.00  0.00
  719                     1.00   1.00  0.00  0.00  0.00  0.00  0.00  0.00  0.00  0.00
  721                     1.00   1.00  0.00  0.00  0.00  0.00  0.00  0.00  0.00  0.00
  723                     1.00   1.00  0.00  0.00  0.00  0.00  0.00  0.00  0.00  0.00
  725                     1.00   1.00  0.00  0.00  0.00  0.00  0.00  0.00  0.00  0.00
  727                     1.00   1.00  0.00  0.00  0.00  0.00  0.00  0.00  0.00  0.00
  729                     1.00   0.00  1.00  0.00  0.00  0.00  0.00  0.00  0.00  0.00
  73                      1.00   0.00  1.00  0.00  0.00  0.00  0.00  0.00  0.00  0.00
  731                     1.00   0.00  0.00  0.00  1.00  0.00  0.00  0.00  0.00  0.00
  733                     1.00   0.00  1.00  0.00  0.00  0.00  0.00  0.00  0.00  0.00
  735                     1.00   1.00  0.00  0.00  0.00  0.00  0.00  0.00  0.00  0.00
  737                     1.00   1.00  0.00  0.00  0.00  0.00  0.00  0.00  0.00  0.00
  739                     1.00   1.00  0.00  0.00  0.00  0.00  0.00  0.00  0.00  0.00
  741                     1.00   1.00  0.00  0.00  0.00  0.00  0.00  0.00  0.00  0.00
  743                     1.00   1.00  0.00  0.00  0.00  0.00  0.00  0.00  0.00  0.00
  745                     1.00   0.00  0.00  0.00  1.00  0.00  0.00  0.00  0.00  0.00
  747                     1.00   0.00  0.00  0.00  1.00  0.00  0.00  0.00  0.99  0.00
  749                     1.00   1.00  0.00  0.00  0.00  0.00  0.00  0.00  0.00  0.00
  75                      1.00   0.00  1.00  0.00  0.00  0.00  0.00  0.00  0.00  0.00
  751                     1.00   1.00  0.00  0.00  0.00  0.00  0.00  0.00  0.00  0.00
  753                     1.00   0.00  0.17  0.00  0.83  0.00  0.00  0.00  0.00  0.00
  755                     1.00   0.00  1.00  0.00  0.00  0.00  0.00  0.00  0.00  0.00
  757                     1.00   0.00  1.00  0.00  0.00  0.00  0.00  0.00  0.00  0.00
  759                     1.00   1.00  0.00  0.00  0.00  0.00  0.00  0.00  0.00  0.00
  761                     1.00   1.00  0.00  0.00  0.00  0.00  0.00  0.00  0.00  0.00
  763                     1.00   1.00  0.00  0.00  0.00  0.00  0.00  0.00  0.00  0.00
  765                     1.00   0.00  1.00  0.00  0.00  0.00  0.00  0.00  0.00  0.00
  767                     1.00   0.00  0.05  0.00  0.95  0.00  0.00  0.00  0.01  0.00
  769                     1.00   0.05  0.00  0.00  0.95  0.00  0.00  0.00  0.00  0.00
  77                      1.00   0.00  0.00  0.00  1.00  0.00  0.00  0.00  0.00  0.00
  771                     1.00   0.03  0.00  0.00  0.96  0.00  0.00  0.00  0.96  0.00
  773                     1.00   0.00  0.03  0.00  0.97  0.00  0.00  0.00  0.00  0.00
  775                     1.00   0.00  0.00  0.00  1.00  0.00  0.00  0.00  0.00  0.00
  779                     1.00   0.00  1.00  0.00  0.00  0.00  0.00  0.00  0.00  0.00
  781                     1.00   1.00  0.00  0.00  0.00  0.00  0.00  0.00  0.00  0.00
  783                     2.85   0.00  1.00  0.00  0.00  0.00  0.00  0.00  1.00  0.00
  785                    24.10   0.00  1.00  0.00  0.00  0.00  0.00  0.00  0.00  0.00
  787                     1.00   1.00  0.00  0.00  0.00  0.00  0.00  0.00  0.00  0.00
  79                      1.00   0.00  0.00  0.00  1.00  0.00  0.00  0.00  0.00  0.00
  81                      1.00   0.00  0.00  0.00  1.00  0.00  0.00  0.00  0.00  0.00
  83                      1.00   0.00  0.00  0.00  1.00  0.00  0.00  0.00  0.00  0.00
  85                      1.00   0.00  0.00  0.00  0.99  0.01  0.00  0.00  1.00  0.00
  87                      1.00   0.02  0.00  0.00  0.98  0.00  0.00  0.00  0.31  0.00
  91                      1.00   0.18  0.18  0.00  0.65  0.00  0.00  0.00  0.00  0.00
  93                      1.00   0.50  0.04  0.00  0.46  0.00  0.00  0.00  0.00  0.00
  95                      1.00   0.54  0.00  0.00  0.46  0.00  0.00  0.00  0.00  0.00
  97                      1.00   0.60  0.03  0.00  0.37  0.00  0.00  0.00  0.00  0.00
  99                      1.00   0.50  0.00  0.00  0.50  0.00  0.00  0.00  0.48  0.00
  
  
  *************************
  Conduit Surcharge Summary
  *************************
  
  ----------------------------------------------------------------------------
                                                           Hours        Hours 
                         --------- Hours Full --------   Above Full   Capacity
  Conduit                Both Ends  Upstream  Dnstream   Normal Flow   Limited
  ----------------------------------------------------------------------------
  113                         3.59      3.59      4.25      0.01         0.01
  115                         4.52      4.52      8.24      0.01         0.01
  117                         4.49      4.49      4.67      0.01         0.01
  145                         0.01      0.01     11.60      0.01         0.01
  149                         0.01      0.01     11.33      0.01         0.01
  151                         0.01      0.01     10.61      0.01         0.01
  153                         0.01      0.01     11.51      0.01         0.01
  155                         0.01      0.01     11.28      0.01         0.01
  17                          0.01      0.01     11.82      0.01         0.01
  181                         7.39      7.39      7.40      0.01         0.32
  183                         7.97      7.97      8.03      0.01         0.01
  187                         0.01      0.01      5.60      0.01         0.01
  193                         0.01      0.01     11.00      0.01         0.01
  195                         0.01      0.01      0.01      7.51         0.01
  201                         0.01      0.01     10.49      0.01         0.01
  219                         0.01      5.62      0.01      7.26         0.01
  221                         0.01      0.01      6.27      6.39         0.01
  223                         0.01      0.01     11.73      0.01         0.01
  225                         0.01      0.01      6.46      0.01         0.01
  231                         5.73      5.73     11.09      0.01         0.01
  233                         1.91      1.91      2.04      1.00         1.00
  237                         0.01      0.01      0.93      0.01         0.01
  243                         0.01      0.01     11.37      0.01         0.01
  245                         0.01      1.92      0.01      5.79         0.01
  247                         0.01      0.01      0.01      9.98         0.01
  249                         9.94      9.94     10.29      0.01         0.01
  25                          0.01      0.01     11.64      0.01         0.01
  251                        10.29     10.29     10.29     11.83         9.66
  257                         0.01      0.01     10.84      0.01         0.01
  27                          0.01      0.01     11.63      0.01         0.01
  297                         0.01      0.01     10.17      0.01         0.01
  301                         5.63      5.63      7.01      0.01         0.01
  31                          0.01      0.01      9.96      0.01         0.01
  317                        10.40     10.40     10.69      0.01         0.01
  321                         0.01      0.01     11.35      0.01         0.01
  329                         0.01      0.01     10.87      0.01         0.01
  331                         0.01      0.01     10.11      0.01         0.01
  351                         0.01      0.01     11.63      0.01         0.01
  37                         11.07     11.07     11.34      0.01         0.01
  39                          0.01      0.01      9.42      0.01         0.01
  41                          8.69      8.69      9.10      0.01         0.01
  413                         0.01      0.01      6.98      0.01         0.01
  427                        11.28     11.28     11.51      0.01         0.01
  429                         0.01      0.01      0.01      5.97         0.01
  431                         7.04      7.04      7.39      0.01         0.01
  433                         7.40      7.40      7.97      0.01         0.01
  435                         7.92      7.92      8.03      1.47         0.01
  437                         0.01      0.01      5.88      0.01         0.01
  439                         0.01      0.01      0.01      1.88         0.01
  441                         0.01      0.01      5.60      0.01         0.01
  447                         0.01      0.01     10.99      0.01         0.01
  453                         0.01      0.01      5.88      0.01         0.01
  467                         0.01      0.01     10.49      0.01         0.01
  485                         0.01      0.01     11.07      0.01         0.01
  491                         0.01      0.01      0.01     11.43         0.01
  493                         0.01      0.01      5.62      0.01         0.01
  495                         0.01      0.01      6.27      0.01         0.01
  497                         6.46      6.46     11.73      2.93         0.01
  505                         0.01      0.01     10.64      0.01         0.01
  509                         0.01      0.01     11.08      0.01         0.01
  51                          0.01      0.01      1.01      0.01         0.01
  511                         2.04      2.04      5.73      0.90         0.90
  513                         0.01      0.01      1.91      0.01         0.01
  515                         0.01      0.01      0.93      7.98         0.01
  529                         0.01      0.01     11.00      0.01         0.01
  549                         0.01      0.01      4.67      0.01         0.01
  551                         4.49      4.49      8.24      0.01         0.01
  553                         4.45      4.45      4.52      0.01         0.01
  555                         0.01      0.01      4.28      0.01         0.01
  557                         3.69      3.69      4.55      0.01         0.01
  559                         4.40      4.40      4.49      0.01         0.01
  561                         0.01      0.01      4.92      0.01         0.01
  563                         4.25      4.25      4.28      3.74         3.76
  565                         0.01      0.01      3.59      0.01         0.01
  57                          3.96      3.99      3.96      4.00         3.96
  575                         0.01      0.01      0.01      3.83         0.01
  579                         0.01      3.96      0.01      4.95         0.01
  581                         0.01      0.01     10.85      0.01         0.01
  595                         0.01      0.01     11.37      0.01         0.01
  597                         1.01      1.01      1.92      0.94         0.94
  601                         0.01      0.01     10.29      0.01         0.01
  603                         9.94      9.94     10.29      0.01         0.01
  605                         0.01      0.01     10.29      0.01         0.01
  61                          4.28      4.28      4.45      0.01         0.01
  63                         11.29     11.29     11.40      0.01         0.01
  641                         0.01      0.01      9.97      0.01         0.01
  65                          0.01      0.01      0.01      4.72         0.01
  657                         0.01      0.01      7.01      0.01         0.01
  659                         0.01      0.01      5.63      0.01         0.01
  661                         0.01      0.01      5.04      0.01         0.01
  669                         0.01      0.01     10.71      0.01         0.01
  67                         10.64     10.64     11.01      0.01         0.01
  675                         0.01      0.01     10.69      0.01         0.01
  689                         9.46      9.46     10.87      0.01         0.01
  691                         0.01      0.01     10.11      0.01         0.01
  699                         9.13      9.13      9.42      0.01         0.01
  701                         0.01      0.01     10.33      0.01         0.01
  71                          0.01      5.99      0.01      7.96         0.01
  745                         0.01      0.01      0.01      5.96         0.01
  747                         0.01      0.01     11.21      0.01         0.01
  753                         0.01      0.01      9.93      0.01         0.01
  767                        10.61     10.61     10.64      0.01         0.01
  771                         0.01      0.01     11.33      0.01         0.01
  773                         0.01      0.01     11.60      0.01         0.01
  775                         0.01      0.01      0.01      7.93         0.01
  783                         0.01      0.01      0.01      0.01         0.01
  83                          0.01      0.01      5.99      0.01         0.01
  87                          5.88      5.88      7.92      0.01         0.01
  91                          0.01      0.01      7.04      0.01         0.01
  93                          4.40      4.40      4.92      0.01         0.01
  95                          4.49      4.49      4.55      0.01         0.01
  97                          0.01      0.01      3.69      0.01         0.01
  
  
  ***************
  Pumping Summary
  ***************
  
  ---------------------------------------------------------------------------------------------------------
                                                  Min       Avg       Max     Total     Power    % Time Off
                        Percent   Number of      Flow      Flow      Flow    Volume     Usage    Pump Curve
  Pump                 Utilized   Start-Ups       CFS       CFS       CFS  10^6 gal     Kw-hr    Low   High
  ---------------------------------------------------------------------------------------------------------
  5006                     0.05           1      0.00     13.55     20.00     0.002      0.37    0.0  100.0
  5008                     0.00           0      0.00      0.00      0.00     0.000      0.00    0.0    0.0
  

  Analysis begun on:  Wed Jun 24 15:10:00 2026
  Analysis ended on:  Wed Jun 24 15:10:01 2026
  Total elapsed time: 00:00:01