
  EPA STORM WATER MANAGEMENT MODEL - VERSION 5.2 (Build 5.2.4)
  ------------------------------------------------------------

  WARNING 04: minimum elevation drop used for Conduit 2040871
  WARNING 04: minimum elevation drop used for Conduit 2129646
  WARNING 04: minimum elevation drop used for Conduit 2137601
  WARNING 04: minimum elevation drop used for Conduit 483328
  WARNING 04: minimum elevation drop used for Conduit 483329
  WARNING 04: minimum elevation drop used for Conduit 485546
  WARNING 04: minimum elevation drop used for Conduit 485560
  WARNING 04: minimum elevation drop used for Conduit 486614
  WARNING 04: minimum elevation drop used for Conduit 489136
  WARNING 10: crest elevation raised to downstream invert for regulator Link 494031
  WARNING 02: maximum depth increased for Node 1696
  WARNING 02: maximum depth increased for Node 2041
  
  *************
  Element Count
  *************
  Number of rain gages ...... 12
  Number of subcatchments ... 0
  Number of nodes ........... 3493
  Number of links ........... 3502
  Number of pollutants ...... 0
  Number of land uses ....... 0
  
  
  ****************
  Raingage Summary
  ****************
                                                      Data       Recording
  Name                 Data Source                    Type       Interval 
  ------------------------------------------------------------------------
  RG01                 2YRDESIGNSTORM                 VOLUME      15 min.
  RG02                 2YRDESIGNSTORM                 VOLUME      15 min.
  RG03                 2YRDESIGNSTORM                 VOLUME      15 min.
  RG04                 2YRDESIGNSTORM                 VOLUME      15 min.
  RG05                 2YRDESIGNSTORM                 VOLUME      15 min.
  RG06                 2YRDESIGNSTORM                 VOLUME      15 min.
  RG07                 2YRDESIGNSTORM                 VOLUME      15 min.
  RG08                 2YRDESIGNSTORM                 VOLUME      15 min.
  RG09                 2YRDESIGNSTORM                 VOLUME      15 min.
  RG10                 2YRDESIGNSTORM                 VOLUME      15 min.
  RG11                 2YRDESIGNSTORM                 VOLUME      15 min.
  RG12                 2YRDESIGNSTORM                 VOLUME      15 min.
  
  
  ************
  Node Summary
  ************
                                           Invert      Max.    Ponded    External
  Name                 Type                 Elev.     Depth      Area    Inflow  
  -------------------------------------------------------------------------------
  100                  JUNCTION            381.15     11.04       0.0
  1004                 JUNCTION            336.13     13.70       0.0
  101                  JUNCTION            382.43     12.23       0.0
  10198                JUNCTION            411.14      9.90       0.0    Yes
  10199                JUNCTION            415.15      9.30       0.0    Yes
  102                  JUNCTION            383.34     23.76       0.0
  10200                JUNCTION            417.33     11.60       0.0    Yes
  10201                JUNCTION            418.41     15.80       0.0    Yes
  10202                JUNCTION            420.86     16.50       0.0    Yes
  10203                JUNCTION            421.76      9.40       0.0    Yes
  10204                JUNCTION            422.81     11.90       0.0    Yes
  10205                JUNCTION            444.53     11.40       0.0    Yes
  10206                JUNCTION            451.74      8.10       0.0    Yes
  10207                JUNCTION            423.89     15.40       0.0    Yes
  10208                JUNCTION            431.15     10.10       0.0    Yes
  10209                JUNCTION            435.57     12.50       0.0    Yes
  1021                 JUNCTION            343.90      8.20       0.0
  10210                JUNCTION            425.27     10.60       0.0    Yes
  10211                JUNCTION            433.63     11.90       0.0    Yes
  10212                JUNCTION            436.45     12.55       0.0    Yes
  10213                JUNCTION            441.20      9.60       0.0    Yes
  10214                JUNCTION            447.12      8.50       0.0    Yes
  1022                 JUNCTION            341.43      8.30       0.0
  1024                 JUNCTION            348.86      5.70       0.0
  1027                 JUNCTION            342.26      8.80       0.0
  1028                 JUNCTION            344.22      7.78       0.0
  1029                 JUNCTION            344.57      4.43       0.0
  103                  JUNCTION            383.94     22.52       0.0    Yes
  1030                 JUNCTION            347.40      6.40       0.0
  1031                 JUNCTION            345.38      1.95       0.0
  10355                JUNCTION            444.30      5.20       0.0    Yes
  10356                JUNCTION            446.04      7.30       0.0    Yes
  10357                JUNCTION            448.26      6.90       0.0    Yes
  10358                JUNCTION            447.59      7.20       0.0    Yes
  10377                JUNCTION            439.32      6.00       0.0    Yes
  10392                JUNCTION            467.21     12.00       0.0    Yes
  10393                JUNCTION            467.65     11.40       0.0    Yes
  10394                JUNCTION            468.38      7.80       0.0    Yes
  10395                JUNCTION            469.20      7.40       0.0    Yes
  10421                JUNCTION            348.63      7.80       0.0
  10422                JUNCTION            349.06      6.90       0.0
  10423                JUNCTION            363.59      9.76       0.0
  10424                JUNCTION            365.83     11.10       0.0
  10425                JUNCTION            367.95     11.30       0.0
  10426                JUNCTION            370.72     13.20       0.0
  10427                JUNCTION            371.53     12.10       0.0
  10428                JUNCTION            386.23     10.32       0.0
  10429                JUNCTION            394.33     12.40       0.0
  10430                JUNCTION            400.35     10.25       0.0
  10431                JUNCTION            403.56      9.42       0.0
  10432                JUNCTION            406.92      9.67       0.0
  10433                JUNCTION            411.99     10.75       0.0
  10434                JUNCTION            417.23     17.00       0.0
  10435                JUNCTION            419.90     13.20       0.0
  10436                JUNCTION            424.65     12.17       0.0
  10437                JUNCTION            426.24      9.45       0.0
  10438                JUNCTION            428.50      8.33       0.0
  10439                JUNCTION            429.78      7.85       0.0
  10440                JUNCTION            431.24     10.70       0.0
  10441                JUNCTION            436.76     16.89       0.0    Yes
  10442                JUNCTION            442.81     13.97       0.0
  10443                JUNCTION            444.85     12.53       0.0
  10444                JUNCTION            446.41     10.37       0.0    Yes
  10445                JUNCTION            448.59      7.01       0.0
  10448                JUNCTION            349.86      8.10       0.0
  10449                JUNCTION            350.57      6.40       0.0
  10450                JUNCTION            351.52     11.10       0.0
  10451                JUNCTION            352.59     10.90       0.0
  10452                JUNCTION            354.00      8.80       0.0
  10453                JUNCTION            354.25      5.80       0.0    Yes
  1046                 JUNCTION            375.01      5.50       0.0    Yes
  10481                JUNCTION            405.48     19.20       0.0
  10482                JUNCTION            402.94     23.16       0.0
  10483                JUNCTION            401.87     25.03       0.0
  10484                JUNCTION            400.80     26.11       0.0
  10485                JUNCTION            399.73     29.83       0.0
  10486                JUNCTION            398.96     31.32       0.0
  10487                JUNCTION            398.12     32.63       0.0
  10488                JUNCTION            396.31     30.15       0.0
  10490                JUNCTION            396.01     25.80       0.0
  10491                JUNCTION            394.98     19.70       0.0
  10493                JUNCTION            372.64     11.10       0.0
  10494                JUNCTION            404.37     11.20       0.0
  10495                JUNCTION            406.99     11.40       0.0
  10496                JUNCTION            408.41     12.10       0.0    Yes
  105                  JUNCTION            360.94      4.06       0.0
  1050                 JUNCTION            373.54      4.10       0.0    Yes
  1051                 JUNCTION            377.16      5.60       0.0    Yes
  10522                JUNCTION            447.82      6.90       0.0    Yes
  10525                JUNCTION            350.52     12.25       0.0
  10531                JUNCTION            367.05     14.27       0.0    Yes
  1055                 JUNCTION            371.18      3.20       0.0    Yes
  1056                 JUNCTION            370.17      6.60       0.0    Yes
  10576                JUNCTION            350.88     14.07       0.0
  10577                JUNCTION            350.86     12.67       0.0
  10579                JUNCTION            351.94     13.07       0.0
  1058                 JUNCTION            371.88      4.00       0.0    Yes
  10580                JUNCTION            352.73     12.60       0.0
  10585                JUNCTION            346.94     11.00       0.0    Yes
  10586                JUNCTION            348.63      9.70       0.0
  10587                JUNCTION            368.49      7.80       0.0
  10588                JUNCTION            367.15     22.90       0.0
  10589                JUNCTION            366.20     13.50       0.0
  10590                JUNCTION            364.93      5.00       0.0
  10591                JUNCTION            364.34      9.80       0.0
  10592                JUNCTION            363.11      9.90       0.0
  10593                JUNCTION            360.55     16.40       0.0
  10594                JUNCTION            361.82      9.80       0.0
  106                  JUNCTION            362.08      2.92       0.0
  1060                 JUNCTION            372.24      7.00       0.0    Yes
  10607                JUNCTION            405.90     17.97       0.0
  10608                JUNCTION            349.88     16.50       0.0
  10609                JUNCTION            350.36     14.64       0.0
  1061                 JUNCTION            375.48      9.80       0.0    Yes
  10610                JUNCTION            351.16     13.50       0.0
  10611                JUNCTION            352.22     14.50       0.0
  10612                JUNCTION            353.36     12.30       0.0
  10613                JUNCTION            354.30     17.40       0.0
  10614                JUNCTION            355.85     16.40       0.0
  10615                JUNCTION            356.92     20.10       0.0
  10616                JUNCTION            357.57     17.70       0.0
  10617                JUNCTION            358.70     16.50       0.0
  10618                JUNCTION            360.02     12.90       0.0
  10619                JUNCTION            391.39     19.20       0.0
  1062                 JUNCTION            338.09     10.80       0.0
  1063                 JUNCTION            339.68     10.90       0.0
  1064                 JUNCTION            343.39      7.82       0.0
  107                  JUNCTION            363.78     10.30       0.0
  1071                 JUNCTION            338.12     11.10       0.0
  1077                 JUNCTION            347.54      9.93       0.0    Yes
  108                  JUNCTION            367.46      8.30       0.0
  1083                 JUNCTION            353.35      4.60       0.0    Yes
  1084                 JUNCTION            349.94     10.00       0.0    Yes
  10841                JUNCTION            390.09      7.73       0.0
  10842                JUNCTION            391.01      5.04       0.0
  10845                JUNCTION            402.70      3.90       0.0
  10846                JUNCTION            391.73      5.69       0.0
  1085                 JUNCTION            350.86     12.30       0.0
  1086                 JUNCTION            362.05      6.20       0.0    Yes
  1087                 JUNCTION            355.81     11.20       0.0    Yes
  1088                 JUNCTION            354.49     14.90       0.0    Yes
  10882                JUNCTION            351.71     10.42       0.0    Yes
  10884                JUNCTION            349.39     13.07       0.0
  1089                 JUNCTION            351.40      7.00       0.0    Yes
  10891                JUNCTION            349.52     11.90       0.0
  109                  JUNCTION            371.26     18.04       0.0
  1090                 JUNCTION            353.47     10.30       0.0    Yes
  1091                 JUNCTION            355.11      9.50       0.0    Yes
  1092                 JUNCTION            368.76      6.70       0.0    Yes
  1093                 JUNCTION            373.59      4.60       0.0    Yes
  1094                 JUNCTION            372.20      8.39       0.0    Yes
  1095                 JUNCTION            372.11      8.70       0.0    Yes
  1096                 JUNCTION            372.10      5.40       0.0    Yes
  1097                 JUNCTION            365.18      4.60       0.0    Yes
  1098                 JUNCTION            370.17      6.77       0.0    Yes
  10983                JUNCTION            412.85      8.90       0.0
  1099                 JUNCTION            370.51      6.09       0.0    Yes
  110                  JUNCTION            373.00     18.14       0.0    Yes
  1100                 JUNCTION            372.92      6.50       0.0    Yes
  11002                JUNCTION            396.91      9.50       0.0
  1101                 JUNCTION            375.65     10.10       0.0    Yes
  1103                 JUNCTION            368.66     11.70       0.0    Yes
  1104                 JUNCTION            382.25      7.30       0.0    Yes
  1105                 JUNCTION            383.66      6.10       0.0    Yes
  1106                 JUNCTION            367.99     16.50       0.0    Yes
  11061                JUNCTION            457.38      8.20       0.0    Yes
  11062                JUNCTION            458.07      9.20       0.0    Yes
  11063                JUNCTION            458.89      9.70       0.0    Yes
  11064                JUNCTION            460.83      8.20       0.0    Yes
  11065                JUNCTION            463.15      8.40       0.0    Yes
  11069                JUNCTION            400.55     10.89       0.0    Yes
  1109                 JUNCTION            377.84      6.30       0.0    Yes
  111                  JUNCTION            370.68     13.60       0.0
  1110                 JUNCTION            376.69      5.80       0.0    Yes
  1111                 JUNCTION            386.60      7.50       0.0    Yes
  1113                 JUNCTION            380.10      8.40       0.0    Yes
  1114                 JUNCTION            381.66      7.20       0.0    Yes
  1115                 JUNCTION            379.91      9.10       0.0    Yes
  1116                 JUNCTION            379.65      8.20       0.0    Yes
  1117                 JUNCTION            382.95     15.20       0.0    Yes
  1118                 JUNCTION            394.15      8.00       0.0    Yes
  11181                JUNCTION            439.40      5.23       0.0
  11182                JUNCTION            424.75      7.80       0.0
  11183                JUNCTION            429.45      6.76       0.0
  1119                 JUNCTION            385.17     14.20       0.0    Yes
  1120                 JUNCTION            359.73     12.55       0.0
  1123                 JUNCTION            359.52     12.60       0.0    Yes
  11262                JUNCTION            421.93      8.47       0.0
  11263                JUNCTION            415.34      7.39       0.0
  11306                JUNCTION            413.91      7.42       0.0
  11307                JUNCTION            413.17      8.00       0.0
  11321                JUNCTION            395.46      6.00       0.0    Yes
  11322                JUNCTION            425.09      5.10       0.0    Yes
  11323                JUNCTION            415.21      3.70       0.0    Yes
  11341                JUNCTION            385.21     11.79       0.0    Yes
  1135                 JUNCTION            364.39     10.20       0.0    Yes
  1136                 JUNCTION            365.48     12.57       0.0
  11363                JUNCTION            369.47      7.43       0.0    Yes
  1137                 JUNCTION            374.31     10.20       0.0
  11370                JUNCTION            370.93     10.05       0.0    Yes
  1138                 JUNCTION            370.32     12.66       0.0
  1139                 JUNCTION            365.69      7.90       0.0    Yes
  1140                 JUNCTION            361.00     12.70       0.0    Yes
  1141                 JUNCTION            367.36     11.26       0.0
  1143                 JUNCTION            380.57      8.30       0.0    Yes
  1144                 JUNCTION            378.07      9.50       0.0    Yes
  11443                JUNCTION            445.08      8.30       0.0    Yes
  11444                JUNCTION            444.02      9.40       0.0    Yes
  11445                JUNCTION            443.05     15.70       0.0    Yes
  11446                JUNCTION            441.19     15.60       0.0    Yes
  11447                JUNCTION            445.45      7.90       0.0    Yes
  11449                JUNCTION            446.51      6.50       0.0    Yes
  1145                 JUNCTION            364.21     11.90       0.0    Yes
  11450                JUNCTION            448.50      4.10       0.0    Yes
  11451                JUNCTION            450.14      5.00       0.0    Yes
  1146                 JUNCTION            390.79      9.70       0.0    Yes
  11461                JUNCTION            422.37      9.38       0.0
  11462                JUNCTION            409.50      4.60       0.0
  11463                JUNCTION            409.17      4.55       0.0
  11464                JUNCTION            410.04     13.70       0.0
  11465                JUNCTION            410.51      7.25       0.0
  11466                JUNCTION            411.22      8.39       0.0
  11467                JUNCTION            412.95     12.32       0.0    Yes
  11468                JUNCTION            412.55      7.64       0.0
  11471                JUNCTION            411.78      9.01       0.0
  11472                JUNCTION            424.12      7.54       0.0
  1148                 JUNCTION            406.36      3.60       0.0    Yes
  11481                JUNCTION            415.68      8.94       0.0
  11482                JUNCTION            413.76      8.50       0.0
  1150                 JUNCTION            400.68     10.10       0.0    Yes
  1151                 JUNCTION            379.34     12.03       0.0
  1152                 JUNCTION            376.27      9.79       0.0
  11523                JUNCTION            406.21     10.20       0.0
  1153                 JUNCTION            392.04      7.90       0.0    Yes
  1154                 JUNCTION            366.25      8.80       0.0    Yes
  1155                 JUNCTION            367.49      9.00       0.0    Yes
  1158                 JUNCTION            366.60      9.80       0.0    Yes
  1160                 JUNCTION            367.23      7.60       0.0    Yes
  1161                 JUNCTION            340.65     10.34       0.0
  1162                 JUNCTION            336.06     10.87       0.0
  1165                 JUNCTION            340.25     10.60       0.0
  11671                JUNCTION            402.20      8.60       0.0
  1170                 JUNCTION            338.19     12.55       0.0
  1171                 JUNCTION            337.86     12.98       0.0
  1176                 JUNCTION            341.01     13.30       0.0
  11778                JUNCTION            417.92     20.70       0.0
  11779                JUNCTION            419.27     15.42       0.0
  1178                 JUNCTION            339.80     17.90       0.0
  11780                JUNCTION            420.50     18.25       0.0
  1179                 JUNCTION            340.27     10.20       0.0
  1181                 JUNCTION            339.22     17.70       0.0
  11861                JUNCTION            367.03      9.92       0.0
  11862                JUNCTION            367.70      8.69       0.0
  1191                 JUNCTION            343.23     20.77       0.0
  1192                 JUNCTION            344.02      7.98       0.0
  1193                 JUNCTION            344.29      9.71       0.0
  1195                 JUNCTION            345.32      8.30       0.0
  1198                 JUNCTION            341.66      8.20       0.0
  1201                 JUNCTION            346.31      6.57       0.0
  1204                 JUNCTION            355.90      9.10       0.0    Yes
  1208                 JUNCTION            341.57     10.98       0.0
  1209                 JUNCTION            342.10     10.16       0.0
  1210                 JUNCTION            341.99     13.30       0.0
  12101                JUNCTION            375.44      8.60       0.0
  12102                JUNCTION            374.47      5.97       0.0
  12105                JUNCTION            372.80      5.80       0.0
  12106                JUNCTION            371.70      7.00       0.0
  12107                JUNCTION            370.49      6.80       0.0
  12108                JUNCTION            369.89      6.70       0.0
  1211                 JUNCTION            341.78     10.67       0.0
  12110                JUNCTION            369.35      6.60       0.0
  12111                JUNCTION            368.43      6.50       0.0
  12112                JUNCTION            367.32      6.00       0.0
  1212                 JUNCTION            348.20      9.14       0.0
  1217                 JUNCTION            346.87      8.50       0.0
  1218                 JUNCTION            350.03      6.67       0.0
  1219                 JUNCTION            350.61      6.22       0.0
  1220                 JUNCTION            351.40      8.45       0.0
  12201                JUNCTION            405.12      9.82       0.0
  12202                JUNCTION            404.36      6.60       0.0
  12203                JUNCTION            411.95      8.07       0.0
  12204                JUNCTION            414.55     10.57       0.0
  12205                JUNCTION            415.71     13.91       0.0
  12207                JUNCTION            421.50     19.50       0.0
  12210                JUNCTION            423.31     11.00       0.0
  12211                JUNCTION            409.51      8.64       0.0
  12242                JUNCTION            423.72     12.89       0.0
  12243                JUNCTION            423.81     11.10       0.0
  1226                 JUNCTION            353.47     18.23       0.0
  1229                 JUNCTION            353.52      8.85       0.0    Yes
  124                  JUNCTION            344.84      8.60       0.0
  12441                JUNCTION            420.08      7.82       0.0
  1247                 JUNCTION            354.56     11.60       0.0
  125                  JUNCTION            342.81      8.20       0.0
  1252                 JUNCTION            355.67     12.90       0.0    Yes
  12548                JUNCTION            370.30     14.62       0.0
  12549                JUNCTION            371.33     12.40       0.0
  12618                JUNCTION            382.52      8.60       0.0
  12634                JUNCTION            399.30      6.51       0.0
  1264                 JUNCTION            356.62     10.00       0.0
  12742                JUNCTION            413.02     12.73       0.0
  12743                JUNCTION            414.31     11.61       0.0
  12744                JUNCTION            415.30     11.57       0.0
  12745                JUNCTION            416.42      7.00       0.0
  12746                JUNCTION            417.28      6.03       0.0
  12767                JUNCTION            395.65     10.67       0.0
  128                  JUNCTION            345.88      8.30       0.0    Yes
  12859                JUNCTION            413.18     11.00       0.0    Yes
  12860                JUNCTION            383.57     10.65       0.0
  12863                JUNCTION            351.12     12.02       0.0    Yes
  129                  JUNCTION            346.58      9.90       0.0
  1290                 JUNCTION            374.88     12.22       0.0
  12904                JUNCTION            390.56     10.50       0.0    Yes
  12906                JUNCTION            466.38      7.00       0.0    Yes
  1293                 JUNCTION            382.06     10.90       0.0
  1295                 JUNCTION            379.88     11.42       0.0
  1297                 JUNCTION            384.39      9.30       0.0
  12979                JUNCTION            418.65     13.30       0.0    Yes
  1298                 JUNCTION            383.72     10.00       0.0
  12980                JUNCTION            417.81     13.40       0.0
  1299                 JUNCTION            382.50     10.95       0.0
  1301                 JUNCTION            370.68     12.60       0.0    Yes
  13017                JUNCTION            436.86     11.10       0.0
  13018                JUNCTION            400.78     10.20       0.0
  13019                JUNCTION            401.62      8.80       0.0
  1302                 JUNCTION            373.32     10.40       0.0    Yes
  13020                JUNCTION            402.48     10.30       0.0
  13021                JUNCTION            406.29      9.30       0.0
  13022                JUNCTION            407.47      9.10       0.0
  13023                JUNCTION            408.89     10.70       0.0
  13024                JUNCTION            410.16      9.70       0.0
  13025                JUNCTION            412.79     11.70       0.0
  13026                JUNCTION            413.74     11.70       0.0
  13027                JUNCTION            415.32     11.70       0.0    Yes
  13028                JUNCTION            416.95     11.80       0.0
  13029                JUNCTION            418.34     10.90       0.0
  13037                JUNCTION            342.27      7.65       0.0
  13039                JUNCTION            341.57     16.15       0.0
  1304                 JUNCTION            377.54     10.47       0.0
  1305                 JUNCTION            385.49      9.70       0.0
  13058                JUNCTION            369.13     12.40       0.0
  13119                JUNCTION            393.66      4.22       0.0
  13120                JUNCTION            392.58      4.69       0.0
  13127                JUNCTION            409.81     10.70       0.0
  13137                JUNCTION            384.98     10.00       0.0    Yes
  13138                JUNCTION            386.04      6.60       0.0
  1327                 JUNCTION            384.23      6.40       0.0    Yes
  13305                JUNCTION            341.57     13.98       0.0
  1332                 JUNCTION            386.86     14.03       0.0
  1333                 JUNCTION            381.66     12.80       0.0
  1335                 JUNCTION            387.73     14.17       0.0
  13377                JUNCTION            353.74      5.13       0.0
  1338                 JUNCTION            377.92      8.20       0.0    Yes
  1339                 JUNCTION            387.64     10.00       0.0
  134                  JUNCTION            339.03     11.76       0.0
  13417                JUNCTION            343.63      8.10       0.0
  13457                JUNCTION            348.59     11.14       0.0
  13458                JUNCTION            346.20     11.82       0.0
  13497                JUNCTION            395.16      6.84       0.0
  135                  JUNCTION            340.16     10.98       0.0
  136                  JUNCTION            335.79     14.40       0.0
  13605                JUNCTION            360.06     10.30       0.0    Yes
  137                  JUNCTION            339.24     11.60       0.0    Yes
  1375                 JUNCTION            385.02     11.10       0.0
  1381                 JUNCTION            387.89      9.41       0.0    Yes
  1382                 JUNCTION            392.84     11.01       0.0    Yes
  1405                 JUNCTION            410.73      5.00       0.0    Yes
  141                  JUNCTION            332.83     17.50       0.0
  1411                 JUNCTION            395.00     16.04       0.0    Yes
  1424                 JUNCTION            396.16     17.06       0.0
  1428                 JUNCTION            400.33     13.38       0.0
  1432                 JUNCTION            372.85     22.15       0.0
  1434                 JUNCTION            404.89     11.30       0.0
  1435                 JUNCTION            403.41     12.06       0.0
  1438                 JUNCTION            403.89     11.91       0.0
  1446                 JUNCTION            406.46     12.14       0.0    Yes
  1447                 JUNCTION            408.44     11.60       0.0
  145                  JUNCTION            340.85      8.55       0.0
  1450                 JUNCTION            409.97     12.50       0.0
  1451                 JUNCTION            409.96     12.41       0.0
  1457                 JUNCTION            415.35      7.80       0.0
  1462                 JUNCTION            417.85      7.08       0.0
  1463                 JUNCTION            393.95     12.85       0.0
  1465                 JUNCTION            392.74     13.64       0.0
  147                  JUNCTION            333.76     13.24       0.0
  1474                 JUNCTION            382.38     17.01       0.0
  148                  JUNCTION            334.54     17.50       0.0
  149                  JUNCTION            337.56     14.44       0.0
  15002                JUNCTION            348.78      8.60       0.0
  15003                JUNCTION            352.61      7.80       0.0
  15011                JUNCTION            470.23      8.80       0.0    Yes
  15030                JUNCTION            353.69     11.20       0.0
  15031                JUNCTION            352.28      9.10       0.0
  15032                JUNCTION            351.15      7.20       0.0
  15033                JUNCTION            349.92      6.60       0.0
  1504                 JUNCTION            357.98      9.70       0.0
  15081                JUNCTION            377.44      9.40       0.0
  15082                JUNCTION            383.03      7.40       0.0    Yes
  15083                JUNCTION            425.31      8.80       0.0
  15089                JUNCTION            393.84      8.00       0.0    Yes
  15096                JUNCTION            331.72     14.10       0.0
  1511                 JUNCTION            398.28      8.26       0.0
  15123                JUNCTION            446.76      7.70       0.0
  15126                JUNCTION            358.89      9.20       0.0    Yes
  15128                JUNCTION            361.54      6.90       0.0
  15129                JUNCTION            403.92      5.10       0.0    Yes
  1513                 JUNCTION            371.80     10.12       0.0    Yes
  15131                JUNCTION            370.72     15.73       0.0
  15132                JUNCTION            349.14     13.40       0.0
  15133                JUNCTION            412.87     13.30       0.0
  15139                JUNCTION            343.90     11.40       0.0    Yes
  15143                JUNCTION            346.26      8.10       0.0
  15145                JUNCTION            343.01     12.20       0.0
  15146                JUNCTION            342.98     12.00       0.0
  15148                JUNCTION            326.11     22.89       0.0
  15149                JUNCTION            329.83     20.39       0.0
  1515                 JUNCTION            402.30      9.39       0.0
  15150                JUNCTION            332.96     21.04       0.0
  15151                JUNCTION            334.78     20.22       0.0
  15152                JUNCTION            337.71     13.29       0.0
  15153                JUNCTION            340.64     11.36       0.0
  15154                JUNCTION            344.07     10.93       0.0
  15155                JUNCTION            345.28     16.72       0.0
  15156                JUNCTION            352.90      5.10       0.0
  15157                JUNCTION            353.26      7.74       0.0
  15158                JUNCTION            353.90     15.10       0.0
  15159                JUNCTION            354.54      6.46       0.0
  1516                 JUNCTION            399.17      7.76       0.0
  15160                JUNCTION            355.18     10.82       0.0
  15161                JUNCTION            355.83      9.17       0.0
  15162                JUNCTION            356.47     13.53       0.0
  15163                JUNCTION            357.10     13.41       0.0
  15164                JUNCTION            357.53     14.56       0.0
  15165                JUNCTION            358.10     15.90       0.0
  15166                JUNCTION            358.79     14.21       0.0
  15167                JUNCTION            359.06     13.94       0.0
  15168                JUNCTION            359.37     25.59       0.0
  15169                JUNCTION            359.98     23.44       0.0
  1517                 JUNCTION            403.29      8.60       0.0
  15170                JUNCTION            360.50     10.50       0.0
  15171                JUNCTION            360.78     14.22       0.0
  15172                JUNCTION            361.58     13.42       0.0
  15173                JUNCTION            362.50     10.50       0.0
  15174                JUNCTION            362.98     14.02       0.0
  15175                JUNCTION            363.35     17.90       0.0
  15176                JUNCTION            370.27     12.90       0.0
  15177                JUNCTION            363.74     17.80       0.0
  15178                JUNCTION            363.40     19.80       0.0
  15179                JUNCTION            365.16     17.40       0.0
  15180                JUNCTION            365.60     24.30       0.0
  15182                JUNCTION            366.24     21.30       0.0
  15183                JUNCTION            369.04     17.40       0.0
  15184                JUNCTION            371.82     14.70       0.0
  15185                JUNCTION            375.03     11.70       0.0
  15186                JUNCTION            380.14      9.40       0.0
  15187                JUNCTION            376.45     15.90       0.0
  15188                JUNCTION            377.40     15.00       0.0
  15189                JUNCTION            378.30     14.60       0.0
  15190                JUNCTION            379.51     14.60       0.0
  15191                JUNCTION            380.63     14.60       0.0
  15192                JUNCTION            380.59     15.40       0.0
  15193                JUNCTION            383.20     15.00       0.0
  15194                JUNCTION            384.68     13.50       0.0
  15195                JUNCTION            385.12     14.60       0.0
  15196                JUNCTION            385.62     13.60       0.0
  15198                JUNCTION            387.82     12.60       0.0
  15199                JUNCTION            389.11     12.30       0.0
  152                  JUNCTION            330.47     12.36       0.0
  1520                 JUNCTION            362.12     14.20       0.0
  15200                JUNCTION            391.03     16.97       0.0
  15201                JUNCTION            391.28     14.84       0.0
  15202                JUNCTION            392.27     20.20       0.0
  15203                JUNCTION            393.32     19.20       0.0
  15204                JUNCTION            395.16     11.90       0.0
  15205                JUNCTION            395.96     10.18       0.0
  15206                JUNCTION            397.87     11.20       0.0
  15207                JUNCTION            399.10     10.60       0.0
  15209                JUNCTION            355.16      9.20       0.0    Yes
  1521                 JUNCTION            359.10     10.00       0.0
  15212                JUNCTION            390.61     11.40       0.0    Yes
  15215                JUNCTION            427.96      6.90       0.0
  15217                JUNCTION            367.91     12.80       0.0    Yes
  15219                JUNCTION            368.03     11.60       0.0    Yes
  1522                 JUNCTION            360.16     11.20       0.0
  15220                JUNCTION            372.54      8.10       0.0    Yes
  15221                JUNCTION            368.93     14.00       0.0    Yes
  15222                JUNCTION            376.99      6.20       0.0    Yes
  15223                JUNCTION            381.18      6.10       0.0    Yes
  15224                JUNCTION            381.85      7.80       0.0    Yes
  15226                JUNCTION            382.27     11.20       0.0    Yes
  15227                JUNCTION            386.43     16.00       0.0    Yes
  15228                JUNCTION            393.05      9.60       0.0    Yes
  15229                JUNCTION            406.92      5.20       0.0    Yes
  1523                 JUNCTION            360.22     12.07       0.0
  1524                 JUNCTION            358.25      8.39       0.0
  1525                 JUNCTION            358.34      9.10       0.0
  1527                 JUNCTION            358.89      9.52       0.0
  15275                JUNCTION            375.52     12.00       0.0    Yes
  15287                JUNCTION            376.38      8.30       0.0
  1529                 JUNCTION            360.86     11.24       0.0
  15290                JUNCTION            366.11     11.50       0.0
  15291                JUNCTION            358.42     12.20       0.0    Yes
  153                  JUNCTION            330.43     13.20       0.0
  1530                 JUNCTION            360.68     11.64       0.0
  15302                JUNCTION            471.48     11.90       0.0    Yes
  15303                JUNCTION            423.58     17.59       0.0    Yes
  15305                JUNCTION            437.42     11.30       0.0    Yes
  15306                JUNCTION            371.65      5.20       0.0    Yes
  1531                 JUNCTION            360.76     12.60       0.0    Yes
  15319                JUNCTION            449.61      5.30       0.0
  15320                JUNCTION            451.27      3.60       0.0    Yes
  15344                JUNCTION            352.51      6.30       0.0    Yes
  15349                JUNCTION            362.58      8.42       0.0    Yes
  15351                JUNCTION            348.23      9.40       0.0    Yes
  15352                JUNCTION            371.70      4.60       0.0    Yes
  15353                JUNCTION            341.76      9.24       0.0    Yes
  15360                JUNCTION            462.23     10.40       0.0
  15365                JUNCTION            415.19     14.10       0.0
  15383                JUNCTION            398.84     13.30       0.0    Yes
  15384                JUNCTION            404.70     20.20       0.0
  15385                JUNCTION            347.48     25.70       0.0    Yes
  154                  JUNCTION            330.40      7.60       0.0
  15402                JUNCTION            331.46     15.50       0.0
  15404                JUNCTION            331.41     15.40       0.0
  15405                JUNCTION            332.26      9.74       0.0
  15406                JUNCTION            332.77     11.62       0.0
  15407                JUNCTION            332.88     10.52       0.0
  15408                JUNCTION            332.73     10.60       0.0
  15409                JUNCTION            334.07     17.86       0.0
  15410                JUNCTION            334.38      6.03       0.0
  15411                JUNCTION            335.99     12.52       0.0
  15412                JUNCTION            336.45     10.50       0.0
  15413                JUNCTION            339.17     18.01       0.0
  15414                JUNCTION            331.75      7.57       0.0
  15415                JUNCTION            332.18      7.42       0.0
  15416                JUNCTION            333.58      8.98       0.0
  15417                JUNCTION            334.20      7.11       0.0
  15418                JUNCTION            335.02      5.93       0.0
  15419                JUNCTION            335.72      6.90       0.0
  15420                JUNCTION            335.94      8.99       0.0
  15421                JUNCTION            338.30     10.10       0.0
  15423                JUNCTION            397.63      6.10       0.0    Yes
  15425                JUNCTION            397.88      7.60       0.0    Yes
  15426                JUNCTION            403.30     10.70       0.0    Yes
  15428                JUNCTION            398.27      6.65       0.0    Yes
  15440                JUNCTION            481.73      5.20       0.0    Yes
  15441                JUNCTION            400.44      7.60       0.0    Yes
  15446                JUNCTION            404.88     11.40       0.0    Yes
  15456                JUNCTION            398.59      5.30       0.0    Yes
  15459                JUNCTION            440.77      7.40       0.0    Yes
  15479                JUNCTION            440.65     10.50       0.0    Yes
  15480                JUNCTION            424.24      5.90       0.0    Yes
  15494                JUNCTION            403.64      8.23       0.0    Yes
  15498                JUNCTION            397.47     10.00       0.0    Yes
  155                  JUNCTION            330.08      8.40       0.0
  15500                JUNCTION            429.61      9.40       0.0    Yes
  15503                JUNCTION            366.27      9.40       0.0    Yes
  15504                JUNCTION            352.73     12.60       0.0
  15505                JUNCTION            380.44     13.02       0.0
  15507                JUNCTION            390.32     11.68       0.0
  15508                JUNCTION            390.32     12.10       0.0
  15512                JUNCTION            409.39      9.00       0.0    Yes
  15515                JUNCTION            327.21     23.60       0.0
  15516                JUNCTION            326.97     24.74       0.0
  15518                JUNCTION            337.76     14.25       0.0
  15519                JUNCTION            338.00     13.77       0.0
  15520                JUNCTION            338.43     13.30       0.0
  15527                JUNCTION            407.86     17.14       0.0
  15528                JUNCTION            409.75     18.10       0.0
  15529                JUNCTION            411.81     21.10       0.0
  15530                JUNCTION            413.01     23.70       0.0
  15531                JUNCTION            414.23     21.40       0.0    Yes
  15532                JUNCTION            425.07      2.28       0.0
  15543                JUNCTION            353.56      8.94       0.0
  15555                JUNCTION            393.19      8.81       0.0
  15556                JUNCTION            391.42      9.58       0.0
  15557                JUNCTION            328.51     11.30       0.0
  1556                 JUNCTION            364.27     10.60       0.0
  1557                 JUNCTION            362.69     14.95       0.0
  15574                JUNCTION            406.57     10.40       0.0    Yes
  1558                 JUNCTION            362.71      9.83       0.0
  15587                JUNCTION            330.17     12.10       0.0
  15588                JUNCTION            331.26     10.90       0.0
  15596                JUNCTION            336.44     10.51       0.0
  15599                JUNCTION            348.44     11.80       0.0
  1561                 JUNCTION            371.26     14.19       0.0
  1562                 JUNCTION            366.70     15.20       0.0
  157                  JUNCTION            340.54      8.49       0.0
  1571                 JUNCTION            367.62     11.70       0.0
  1572                 JUNCTION            367.11     10.82       0.0
  158                  JUNCTION            350.58     10.42       0.0
  1598                 JUNCTION            355.58     15.10       0.0
  1599                 JUNCTION            358.00     15.70       0.0
  1600                 JUNCTION            361.66      9.10       0.0
  1601                 JUNCTION            363.84      8.16       0.0
  1602                 JUNCTION            347.29     12.10       0.0
  1603                 JUNCTION            348.54      6.20       0.0
  1621                 JUNCTION            370.71      6.67       0.0
  1642                 JUNCTION            371.24      8.45       0.0
  1643                 JUNCTION            391.14      9.67       0.0
  1646                 JUNCTION            372.06      9.05       0.0
  1649                 JUNCTION            388.20     15.80       0.0
  1660                 JUNCTION            382.06      9.80       0.0
  1661                 JUNCTION            379.81      9.19       0.0
  1662                 JUNCTION            374.10     12.01       0.0
  1664                 JUNCTION            378.12      7.23       0.0
  1665                 JUNCTION            382.70     10.90       0.0
  1666                 JUNCTION            376.94      8.26       0.0
  1670                 JUNCTION            380.78      7.76       0.0    Yes
  1675                 JUNCTION            382.35      8.29       0.0
  1677                 JUNCTION            378.54      8.07       0.0
  1678                 JUNCTION            365.85      7.90       0.0    Yes
  1680                 JUNCTION            366.97     10.10       0.0
  169                  JUNCTION            336.53      9.80       0.0
  1691                 JUNCTION            383.06      7.60       0.0
  1693                 JUNCTION            384.24      6.80       0.0
  1695                 JUNCTION            405.55      9.60       0.0
  1696                 JUNCTION            446.66      5.50       0.0
  1697                 JUNCTION            397.44      5.70       0.0    Yes
  1698                 JUNCTION            386.87      5.00       0.0    Yes
  1699                 JUNCTION            398.42      6.20       0.0    Yes
  170                  JUNCTION            338.78      9.00       0.0    Yes
  1703                 JUNCTION            401.15      5.30       0.0
  1704                 JUNCTION            399.88      5.40       0.0    Yes
  1708                 JUNCTION            397.82     10.10       0.0    Yes
  1709                 JUNCTION            401.90      3.00       0.0    Yes
  171                  JUNCTION            336.44      7.80       0.0
  1710                 JUNCTION            405.89      5.80       0.0    Yes
  1711                 JUNCTION            404.78     11.10       0.0    Yes
  1713                 JUNCTION            403.58      8.24       0.0
  1715                 JUNCTION            409.69      5.90       0.0    Yes
  1717                 JUNCTION            407.81     10.40       0.0    Yes
  1718                 JUNCTION            409.40      5.40       0.0    Yes
  1719                 JUNCTION            408.00     10.11       0.0    Yes
  1720                 JUNCTION            415.14      5.30       0.0    Yes
  1723                 JUNCTION            397.81      4.89       0.0
  1729                 JUNCTION            395.32      6.73       0.0
  1735                 JUNCTION            364.30      7.91       0.0
  1736                 JUNCTION            363.73      7.10       0.0
  1737                 JUNCTION            368.40      5.10       0.0    Yes
  1738                 JUNCTION            372.51      6.90       0.0
  1739                 JUNCTION            362.84      8.80       0.0
  1740                 JUNCTION            363.81      7.64       0.0    Yes
  1744                 JUNCTION            364.86      8.70       0.0
  1745                 JUNCTION            369.09      8.00       0.0
  1747                 JUNCTION            366.33      4.70       0.0
  1748                 JUNCTION            366.77      3.40       0.0    Yes
  1749                 JUNCTION            367.01      4.20       0.0
  1750                 JUNCTION            367.57      6.50       0.0
  176                  JUNCTION            335.99      6.01       0.0
  1761                 JUNCTION            411.48     13.60       0.0    Yes
  1762                 JUNCTION            411.17     13.60       0.0    Yes
  1763                 JUNCTION            419.64      9.50       0.0    Yes
  1765                 JUNCTION            419.01      9.90       0.0    Yes
  1766                 JUNCTION            421.64      6.80       0.0    Yes
  1767                 JUNCTION            421.66      6.20       0.0    Yes
  1769                 JUNCTION            415.15      4.10       0.0    Yes
  177                  JUNCTION            336.98      9.40       0.0
  1770                 JUNCTION            412.35      9.70       0.0    Yes
  1771                 JUNCTION            412.63      8.70       0.0    Yes
  1772                 JUNCTION            409.84      8.70       0.0    Yes
  1774                 JUNCTION            414.84      5.40       0.0    Yes
  1775                 JUNCTION            405.79      8.00       0.0    Yes
  1776                 JUNCTION            392.60      8.60       0.0    Yes
  1777                 JUNCTION            388.79      9.10       0.0    Yes
  1778                 JUNCTION            398.93      5.50       0.0    Yes
  1779                 JUNCTION            389.25      8.50       0.0    Yes
  178                  JUNCTION            337.66      9.00       0.0
  1780                 JUNCTION            388.72      8.30       0.0    Yes
  1781                 JUNCTION            402.72      8.50       0.0    Yes
  1782                 JUNCTION            422.65     11.70       0.0    Yes
  1783                 JUNCTION            425.30      8.70       0.0    Yes
  1784                 JUNCTION            411.75      9.25       0.0    Yes
  1785                 JUNCTION            410.13     10.20       0.0    Yes
  1786                 JUNCTION            417.13      4.90       0.0    Yes
  1788                 JUNCTION            418.35      3.60       0.0    Yes
  1789                 JUNCTION            446.87      5.90       0.0    Yes
  179                  JUNCTION            339.13      8.70       0.0
  1790                 JUNCTION            435.21      6.50       0.0    Yes
  1792                 JUNCTION            413.39     11.80       0.0    Yes
  1793                 JUNCTION            421.94     13.80       0.0    Yes
  1794                 JUNCTION            429.07      6.10       0.0    Yes
  1795                 JUNCTION            415.38      5.62       0.0    Yes
  1796                 JUNCTION            419.77     14.80       0.0    Yes
  1797                 JUNCTION            423.21      6.30       0.0    Yes
  1798                 JUNCTION            427.38      9.30       0.0    Yes
  1799                 JUNCTION            417.37     12.40       0.0    Yes
  1800                 JUNCTION            428.58      8.00       0.0    Yes
  1801                 JUNCTION            430.44      6.90       0.0    Yes
  1802                 JUNCTION            435.91      6.00       0.0    Yes
  1803                 JUNCTION            428.72      7.70       0.0    Yes
  1804                 JUNCTION            423.28      6.80       0.0    Yes
  1805                 JUNCTION            434.48      7.60       0.0    Yes
  1806                 JUNCTION            435.93     10.50       0.0    Yes
  1807                 JUNCTION            437.62      2.80       0.0    Yes
  1808                 JUNCTION            438.51      3.30       0.0    Yes
  1809                 JUNCTION            366.92      9.50       0.0
  1810                 JUNCTION            367.31      8.00       0.0
  1812                 JUNCTION            368.88      6.50       0.0
  1813                 JUNCTION            370.31      7.00       0.0
  1814                 JUNCTION            370.88      7.30       0.0
  182                  JUNCTION            338.51     12.49       0.0
  1822                 JUNCTION            371.46      7.00       0.0
  1826                 JUNCTION            370.05      7.10       0.0
  1827                 JUNCTION            371.59      7.10       0.0
  1828                 JUNCTION            373.25     15.20       0.0
  1831                 JUNCTION            372.65      7.10       0.0
  1832                 JUNCTION            372.23      7.17       0.0
  1833                 JUNCTION            373.14      7.39       0.0
  1835                 JUNCTION            374.58      5.97       0.0
  1836                 JUNCTION            375.10      5.80       0.0    Yes
  184                  JUNCTION            339.97     11.27       0.0
  1840                 JUNCTION            376.03      5.16       0.0
  1843                 JUNCTION            375.42      6.13       0.0
  185                  JUNCTION            339.47      8.70       0.0
  1884                 JUNCTION            376.02      6.14       0.0
  1887                 JUNCTION            375.78      7.82       0.0
  1889                 JUNCTION            378.69      5.79       0.0
  189                  JUNCTION            331.37     13.63       0.0
  1891                 JUNCTION            377.33      4.88       0.0
  1896                 JUNCTION            380.02     11.00       0.0
  1897                 JUNCTION            378.21      5.50       0.0
  1898                 JUNCTION            375.79      8.10       0.0
  1921                 JUNCTION            379.07      6.93       0.0
  1922                 JUNCTION            385.88      3.00       0.0
  1923                 JUNCTION            388.27     12.73       0.0
  1924                 JUNCTION            381.67     10.50       0.0
  1925                 JUNCTION            387.05      5.20       0.0
  1926                 JUNCTION            386.02      5.30       0.0
  1928                 JUNCTION            380.91      8.30       0.0
  1929                 JUNCTION            380.57      6.42       0.0
  193                  JUNCTION            339.23      5.20       0.0
  1930                 JUNCTION            383.15      5.44       0.0
  1931                 JUNCTION            378.15      5.90       0.0    Yes
  1934                 JUNCTION            389.91      5.30       0.0
  1939                 JUNCTION            394.38      8.62       0.0
  194                  JUNCTION            338.02      6.70       0.0
  1943                 JUNCTION            395.98      6.70       0.0
  1945                 JUNCTION            389.28      5.60       0.0
  1946                 JUNCTION            386.33      8.80       0.0
  1948                 JUNCTION            392.27      7.67       0.0
  195                  JUNCTION            332.71     11.20       0.0
  1951                 JUNCTION            392.40      4.98       0.0
  1955                 JUNCTION            386.20      8.99       0.0
  196                  JUNCTION            336.39     12.30       0.0
  1963                 JUNCTION            386.96      8.10       0.0
  1964                 JUNCTION            385.76      6.07       0.0
  1965                 JUNCTION            383.64      5.50       0.0
  1966                 JUNCTION            389.73     10.30       0.0
  197                  JUNCTION            337.76      8.60       0.0
  1978                 JUNCTION            401.53      5.85       0.0
  198                  JUNCTION            340.37      4.00       0.0
  1981                 JUNCTION            399.42      7.07       0.0
  1987                 JUNCTION            402.64      6.60       0.0    Yes
  1988                 JUNCTION            404.50      4.90       0.0
  199                  JUNCTION            342.02      6.00       0.0    Yes
  1991                 JUNCTION            408.63      7.50       0.0
  1992                 JUNCTION            403.48      6.64       0.0
  2008                 JUNCTION            438.39      7.20       0.0    Yes
  2022                 JUNCTION            389.68      7.00       0.0    Yes
  2023                 JUNCTION            388.75      6.50       0.0
  2041                 JUNCTION            393.86      1.25       0.0
  2042                 JUNCTION            398.65      5.86       0.0    Yes
  2043                 JUNCTION            413.49      6.30       0.0
  2044                 JUNCTION            418.74      6.40       0.0
  2045                 JUNCTION            412.41      5.67       0.0
  2047                 JUNCTION            393.95      6.91       0.0
  205                  JUNCTION            341.54      5.46       0.0
  2050                 JUNCTION            424.30      9.20       0.0
  2051                 JUNCTION            422.00      8.70       0.0
  2054                 JUNCTION            396.87      5.11       0.0
  2057                 JUNCTION            395.00      6.95       0.0
  2058                 JUNCTION            394.33      7.05       0.0    Yes
  2059                 JUNCTION            394.88      7.10       0.0    Yes
  2060                 JUNCTION            435.75      5.30       0.0
  2061                 JUNCTION            432.60      8.27       0.0    Yes
  2064                 JUNCTION            395.45      6.50       0.0
  207                  JUNCTION            342.63      6.50       0.0
  2075                 JUNCTION            396.54      6.42       0.0
  2076                 JUNCTION            398.16      2.69       0.0
  208                  JUNCTION            330.63     12.20       0.0
  2083                 JUNCTION            397.40      6.95       0.0
  2086                 JUNCTION            400.81     10.40       0.0
  2088                 JUNCTION            397.78      7.30       0.0
  2089                 JUNCTION            398.40      7.42       0.0
  209                  JUNCTION            331.33     17.67       0.0
  2092                 JUNCTION            399.43      7.08       0.0
  2093                 JUNCTION            399.50      6.50       0.0
  2096                 JUNCTION            392.68      8.30       0.0    Yes
  2098                 JUNCTION            396.02      6.30       0.0    Yes
  2099                 JUNCTION            403.60      5.20       0.0    Yes
  21                   JUNCTION            365.60     14.60       0.0    Yes
  210                  JUNCTION            330.83     18.61       0.0
  2100                 JUNCTION            424.18      6.00       0.0
  2104                 JUNCTION            412.22      4.70       0.0    Yes
  2106                 JUNCTION            424.24      5.26       0.0    Yes
  2109                 JUNCTION            381.23     12.00       0.0    Yes
  211                  JUNCTION            331.06     18.40       0.0
  2110                 JUNCTION            384.10     10.50       0.0    Yes
  2111                 JUNCTION            381.88     12.10       0.0    Yes
  2112                 JUNCTION            381.67     12.50       0.0    Yes
  2113                 JUNCTION            380.86     12.50       0.0    Yes
  2114                 JUNCTION            384.60     10.70       0.0    Yes
  2116                 JUNCTION            406.17      6.90       0.0    Yes
  2117                 JUNCTION            414.52      7.22       0.0    Yes
  2118                 JUNCTION            382.38     12.00       0.0    Yes
  2119                 JUNCTION            383.53     11.30       0.0    Yes
  2122                 JUNCTION            383.93     11.50       0.0    Yes
  2123                 JUNCTION            386.57      8.20       0.0    Yes
  2124                 JUNCTION            406.80      7.40       0.0    Yes
  2125                 JUNCTION            398.57      9.10       0.0    Yes
  2130                 JUNCTION            425.41      7.90       0.0
  2145                 JUNCTION            409.18      6.70       0.0    Yes
  2148                 JUNCTION            428.21      8.10       0.0    Yes
  2149                 JUNCTION            384.80      8.20       0.0    Yes
  2150                 JUNCTION            407.64      6.80       0.0    Yes
  2151                 JUNCTION            425.45      7.00       0.0    Yes
  2152                 JUNCTION            425.01      8.00       0.0    Yes
  216                  JUNCTION            337.94     11.20       0.0
  2168                 JUNCTION            403.70      8.80       0.0    Yes
  2169                 JUNCTION            386.33     13.50       0.0    Yes
  2170                 JUNCTION            407.14      7.40       0.0    Yes
  2171                 JUNCTION            421.86      9.10       0.0    Yes
  2172                 JUNCTION            398.93      8.80       0.0    Yes
  2174                 JUNCTION            385.93     15.20       0.0    Yes
  218                  JUNCTION            339.76      7.30       0.0
  2182                 JUNCTION            412.58     11.10       0.0
  2183                 JUNCTION            411.18     13.82       0.0    Yes
  2184                 JUNCTION            413.58     13.53       0.0
  2185                 JUNCTION            423.90      6.70       0.0    Yes
  2186                 JUNCTION            420.92      6.70       0.0    Yes
  2187                 JUNCTION            407.56      3.80       0.0    Yes
  2188                 JUNCTION            420.80      8.80       0.0    Yes
  2189                 JUNCTION            409.39      9.00       0.0    Yes
  219                  JUNCTION            341.03      8.80       0.0
  2191                 JUNCTION            388.56     14.70       0.0    Yes
  2192                 JUNCTION            387.91     14.60       0.0    Yes
  2196                 JUNCTION            411.10      6.30       0.0    Yes
  2198                 JUNCTION            406.12      5.10       0.0    Yes
  2199                 JUNCTION            413.61      9.10       0.0    Yes
  22                   JUNCTION            363.66     12.14       0.0    Yes
  220                  JUNCTION            342.52      6.90       0.0
  2200                 JUNCTION            408.53      8.00       0.0    Yes
  2201                 JUNCTION            407.03      7.40       0.0    Yes
  2202                 JUNCTION            414.76      7.90       0.0    Yes
  2203                 JUNCTION            398.20     10.20       0.0    Yes
  2204                 JUNCTION            402.44     10.00       0.0    Yes
  2205                 JUNCTION            404.45     12.55       0.0    Yes
  2207                 JUNCTION            402.30      7.60       0.0    Yes
  2208                 JUNCTION            394.99     11.90       0.0    Yes
  2209                 JUNCTION            390.15     10.00       0.0    Yes
  221                  JUNCTION            341.87      7.10       0.0    Yes
  2210                 JUNCTION            399.69      7.50       0.0    Yes
  222                  JUNCTION            345.15      7.30       0.0
  2220                 JUNCTION            402.58      5.90       0.0    Yes
  2223                 JUNCTION            399.79     11.30       0.0    Yes
  2224                 JUNCTION            408.96      7.60       0.0    Yes
  2225                 JUNCTION            407.89      4.18       0.0    Yes
  2226                 JUNCTION            400.33      7.30       0.0    Yes
  2227                 JUNCTION            400.65      7.00       0.0    Yes
  2228                 JUNCTION            401.63      6.00       0.0    Yes
  2229                 JUNCTION            403.46     10.00       0.0    Yes
  223                  JUNCTION            346.66      3.02       0.0
  2230                 JUNCTION            391.13     13.80       0.0    Yes
  2232                 JUNCTION            407.29      7.00       0.0    Yes
  2233                 JUNCTION            393.77     11.60       0.0    Yes
  2238                 JUNCTION            419.02      5.90       0.0    Yes
  2239                 JUNCTION            414.24      8.50       0.0    Yes
  224                  JUNCTION            342.51      4.26       0.0
  2240                 JUNCTION            419.44      6.60       0.0    Yes
  2244                 JUNCTION            441.59      9.00       0.0    Yes
  2245                 JUNCTION            414.75      8.70       0.0    Yes
  2246                 JUNCTION            395.27     12.90       0.0    Yes
  2249                 JUNCTION            416.36      8.40       0.0    Yes
  225                  JUNCTION            341.80      3.80       0.0
  2250                 JUNCTION            407.10     15.80       0.0    Yes
  2251                 JUNCTION            395.51     15.00       0.0    Yes
  2253                 JUNCTION            407.50      5.70       0.0    Yes
  2254                 JUNCTION            424.64      5.30       0.0    Yes
  2255                 JUNCTION            437.45      5.40       0.0    Yes
  2258                 JUNCTION            407.34      6.60       0.0    Yes
  226                  JUNCTION            340.47      8.20       0.0
  2260                 JUNCTION            429.48      3.52       0.0    Yes
  2261                 JUNCTION            426.30      6.50       0.0    Yes
  2262                 JUNCTION            408.59      9.90       0.0    Yes
  227                  JUNCTION            350.34      4.70       0.0    Yes
  2276                 JUNCTION            412.94      9.20       0.0    Yes
  2278                 JUNCTION            396.18     14.40       0.0    Yes
  2280                 JUNCTION            415.11      9.20       0.0    Yes
  2282                 JUNCTION            416.65      6.10       0.0    Yes
  2284                 JUNCTION            408.31      8.70       0.0
  2285                 JUNCTION            405.48     10.00       0.0
  2286                 JUNCTION            397.09     12.93       0.0
  2288                 JUNCTION            404.41     10.90       0.0
  2289                 JUNCTION            403.74      9.10       0.0
  23                   JUNCTION            367.11      8.75       0.0
  2302                 JUNCTION            426.66      5.40       0.0    Yes
  2303                 JUNCTION            419.64     11.50       0.0    Yes
  2309                 JUNCTION            403.78      9.00       0.0    Yes
  231                  JUNCTION            346.54      7.20       0.0    Yes
  2312                 JUNCTION            440.35     10.50       0.0    Yes
  2313                 JUNCTION            440.93     10.00       0.0    Yes
  2314                 JUNCTION            435.90     12.50       0.0    Yes
  2315                 JUNCTION            426.94     10.50       0.0    Yes
  2316                 JUNCTION            422.74     14.80       0.0    Yes
  2317                 JUNCTION            421.94     16.00       0.0    Yes
  2318                 JUNCTION            423.36     13.80       0.0    Yes
  2319                 JUNCTION            421.13     16.00       0.0    Yes
  232                  JUNCTION            398.61     11.04       0.0
  233                  JUNCTION            344.67      8.00       0.0    Yes
  2333                 JUNCTION            420.11      5.60       0.0
  2334                 JUNCTION            415.99      8.60       0.0
  2336                 JUNCTION            425.70      6.29       0.0
  2337                 JUNCTION            416.97      5.79       0.0
  2339                 JUNCTION            432.99      6.64       0.0
  2345                 JUNCTION            437.81      5.72       0.0
  2346                 JUNCTION            438.61     10.06       0.0
  2381                 JUNCTION            440.29      4.32       0.0
  2403                 JUNCTION            415.11     10.07       0.0
  2406                 JUNCTION            418.80     16.50       0.0
  2407                 JUNCTION            420.62      6.30       0.0
  2413                 JUNCTION            421.63      6.45       0.0    Yes
  2418                 JUNCTION            422.42     12.50       0.0
  2419                 JUNCTION            422.86      9.14       0.0
  2433                 JUNCTION            428.88     14.80       0.0
  2435                 JUNCTION            424.48      6.52       0.0
  2436                 JUNCTION            424.88      5.12       0.0
  2438                 JUNCTION            429.99     10.90       0.0
  2440                 JUNCTION            426.36      4.40       0.0
  2441                 JUNCTION            425.41      3.59       0.0
  2442                 JUNCTION            426.55      6.45       0.0
  2443                 JUNCTION            427.89      9.10       0.0
  2444                 JUNCTION            428.24      5.62       0.0
  2445                 JUNCTION            427.29     11.00       0.0
  2467                 JUNCTION            441.52      3.92       0.0
  2468                 JUNCTION            442.81      6.00       0.0
  2474                 JUNCTION            459.44      4.70       0.0    Yes
  2487                 JUNCTION            449.21     21.92       0.0
  2492                 JUNCTION            458.53      5.20       0.0
  2494                 JUNCTION            458.25      6.82       0.0
  2506                 JUNCTION            400.53      6.47       0.0
  2507                 JUNCTION            401.01      5.40       0.0
  2508                 JUNCTION            402.23      9.50       0.0
  2510                 JUNCTION            402.50     12.60       0.0
  2511                 JUNCTION            403.10      7.70       0.0
  2512                 JUNCTION            403.24      4.76       0.0
  2530                 JUNCTION            404.27     10.00       0.0
  2531                 JUNCTION            404.31      9.90       0.0
  2532                 JUNCTION            409.59      7.70       0.0
  2533                 JUNCTION            410.11      8.30       0.0
  2534                 JUNCTION            404.82     11.80       0.0
  2535                 JUNCTION            404.36      6.90       0.0    Yes
  2539                 JUNCTION            405.38      7.60       0.0
  2543                 JUNCTION            411.50      3.50       0.0    Yes
  2552                 JUNCTION            459.82      4.40       0.0
  2579                 JUNCTION            418.21      4.40       0.0
  2580                 JUNCTION            415.28      6.72       0.0
  2581                 JUNCTION            407.28      6.10       0.0
  2582                 JUNCTION            413.79      6.21       0.0
  2592                 JUNCTION            419.93      3.07       0.0
  2593                 JUNCTION            416.15      3.00       0.0
  2594                 JUNCTION            418.48      6.20       0.0
  2597                 JUNCTION            421.44      7.56       0.0
  2600                 JUNCTION            422.82      4.70       0.0
  2604                 JUNCTION            420.09      5.91       0.0
  2606                 JUNCTION            424.90      5.10       0.0    Yes
  2608                 JUNCTION            421.39      4.61       0.0
  2613                 JUNCTION            424.49      6.73       0.0
  2616                 JUNCTION            425.23      5.00       0.0    Yes
  2617                 JUNCTION            427.37      7.30       0.0
  2618                 JUNCTION            428.70      6.70       0.0
  2620                 JUNCTION            426.37      4.70       0.0
  2621                 JUNCTION            430.54      7.40       0.0
  2632                 JUNCTION            463.28      4.80       0.0
  2633                 JUNCTION            466.45      6.30       0.0
  2637                 JUNCTION            431.41      9.60       0.0
  2646                 JUNCTION            431.08      4.04       0.0
  2647                 JUNCTION            444.83      8.26       0.0
  2648                 JUNCTION            442.03      6.94       0.0
  2649                 JUNCTION            440.55      7.39       0.0    Yes
  266                  JUNCTION            356.79      9.20       0.0    Yes
  2660                 JUNCTION            447.24     14.60       0.0
  2661                 JUNCTION            453.86      6.80       0.0
  2662                 JUNCTION            447.94     13.60       0.0    Yes
  2664                 JUNCTION            447.20     12.10       0.0
  2665                 JUNCTION            456.59      7.80       0.0
  267                  JUNCTION            389.75      6.40       0.0
  2676                 JUNCTION            467.11      7.00       0.0    Yes
  2688                 JUNCTION            460.00      2.98       0.0
  2689                 JUNCTION            458.24      1.76       0.0
  2690                 JUNCTION            457.04      4.96       0.0
  2696                 JUNCTION            463.92      9.00       0.0    Yes
  2698                 JUNCTION            461.49      1.51       0.0
  2734                 JUNCTION            437.55      9.88       0.0    Yes
  2744                 JUNCTION            451.23      6.95       0.0    Yes
  2745                 JUNCTION            452.20      6.04       0.0
  2747                 JUNCTION            456.66      6.34       0.0
  2761                 JUNCTION            469.91     12.92       0.0
  2762                 JUNCTION            438.51      9.92       0.0
  2763                 JUNCTION            463.68     10.82       0.0
  2766                 JUNCTION            441.59      8.05       0.0
  2783                 JUNCTION            448.51     10.54       0.0
  2784                 JUNCTION            458.76      8.60       0.0
  2792                 JUNCTION            471.18     10.32       0.0
  2800                 JUNCTION            472.48     14.17       0.0
  281                  JUNCTION            388.99      7.70       0.0
  2812                 JUNCTION            465.78      8.89       0.0
  282                  JUNCTION            386.42     10.66       0.0
  283                  JUNCTION            385.81      6.70       0.0
  2831                 JUNCTION            478.64      9.23       0.0
  2832                 JUNCTION            488.41      7.67       0.0
  2837                 JUNCTION            473.39     15.28       0.0
  284                  JUNCTION            399.61     25.20       0.0
  2841                 JUNCTION            473.77     10.57       0.0
  2849                 JUNCTION            495.47      8.50       0.0
  2853                 JUNCTION            475.08      6.36       0.0
  2857                 JUNCTION            507.92     14.20       0.0    Yes
  2858                 JUNCTION            505.75      8.70       0.0
  29                   JUNCTION            376.21      6.50       0.0
  290                  JUNCTION            394.11      6.80       0.0    Yes
  291                  JUNCTION            392.49      7.30       0.0
  292                  JUNCTION            391.40      7.70       0.0
  2921                 JUNCTION            432.94      7.50       0.0
  2922                 JUNCTION            433.07      8.65       0.0
  2924                 JUNCTION            416.68      8.32       0.0
  2926                 JUNCTION            430.72      7.19       0.0    Yes
  2927                 JUNCTION            428.17      7.83       0.0
  2928                 JUNCTION            426.39      7.01       0.0
  2929                 JUNCTION            429.06      6.30       0.0
  293                  JUNCTION            400.14     11.50       0.0
  294                  JUNCTION            400.54     18.00       0.0    Yes
  295                  JUNCTION            389.79      8.90       0.0
  2961                 JUNCTION            434.39      7.50       0.0
  2975                 JUNCTION            435.35      8.00       0.0    Yes
  2976                 JUNCTION            421.68      7.32       0.0
  298                  JUNCTION            375.05      6.95       0.0
  2998                 JUNCTION            439.52      9.60       0.0
  2999                 JUNCTION            441.60      9.80       0.0
  30                   JUNCTION            374.95     10.50       0.0
  3000                 JUNCTION            437.82      8.30       0.0
  3007                 JUNCTION            443.88      4.12       0.0
  301                  JUNCTION            355.60      9.30       0.0
  302                  JUNCTION            355.19      9.40       0.0
  3020                 JUNCTION            445.37      9.90       0.0
  303                  JUNCTION            354.57      9.40       0.0
  3030                 JUNCTION            446.49     11.80       0.0
  3035                 JUNCTION            449.03      8.10       0.0
  3037                 JUNCTION            466.01      9.80       0.0    Yes
  3038                 JUNCTION            473.56      7.50       0.0    Yes
  304                  JUNCTION            358.86     10.00       0.0
  3044                 JUNCTION            451.28      9.30       0.0
  3045                 JUNCTION            451.08      6.90       0.0
  3046                 JUNCTION            457.29     25.72       0.0
  3047                 JUNCTION            456.18     19.91       0.0
  3048                 JUNCTION            458.49     10.80       0.0
  305                  JUNCTION            359.66     10.40       0.0
  3055                 JUNCTION            454.68      9.00       0.0
  3056                 JUNCTION            454.46     17.00       0.0
  3063                 JUNCTION            452.51     10.30       0.0
  307                  JUNCTION            356.00      9.00       0.0
  3072                 JUNCTION            444.39      8.42       0.0
  3075                 JUNCTION            447.44      4.50       0.0
  308                  JUNCTION            356.66      9.30       0.0
  3086                 JUNCTION            447.30      4.08       0.0
  309                  JUNCTION            376.41     10.30       0.0
  3090                 JUNCTION            446.64      4.70       0.0
  31                   JUNCTION            376.57      7.10       0.0
[...]
  494986           CIRCULAR             1.00     0.79     0.25     1.00        1     2.01
  495019           CIRCULAR             1.50     1.77     0.38     1.50        1     7.05
  495045           CIRCULAR             1.00     0.79     0.25     1.00        1     0.90
  495046           CIRCULAR             1.00     0.79     0.25     1.00        1     1.21
  495050           CIRCULAR             0.83     0.54     0.21     0.83        1     0.95
  495051           CIRCULAR             0.83     0.54     0.21     0.83        1     0.91
  495052           CIRCULAR             1.00     0.79     0.25     1.00        1     3.89
  495053           CIRCULAR             1.00     0.79     0.25     1.00        1     2.02
  495054           CIRCULAR             1.00     0.79     0.25     1.00        1     1.62
  495055           CIRCULAR             1.00     0.79     0.25     1.00        1     1.57
  495056           CIRCULAR             1.00     0.79     0.25     1.00        1     1.22
  495057           CIRCULAR             1.00     0.79     0.25     1.00        1     2.03
  495058           CIRCULAR             1.00     0.79     0.25     1.00        1     1.41
  495059           CIRCULAR             1.00     0.79     0.25     1.00        1     1.47
  495060           CIRCULAR             1.00     0.79     0.25     1.00        1     1.37
  495061           CIRCULAR             1.25     1.23     0.31     1.25        1     4.43
  495062           CIRCULAR             1.25     1.23     0.31     1.25        1     2.11
  495063           CIRCULAR             1.25     1.23     0.31     1.25        1     2.88
  495064           CIRCULAR             1.25     1.23     0.31     1.25        1     4.04
  495074           CIRCULAR             0.67     0.35     0.17     0.67        1     0.73
  495075           CIRCULAR             0.67     0.35     0.17     0.67        1     0.21
  495097           CIRCULAR             1.00     0.79     0.25     1.00        1     2.17
  495105           CIRCULAR             0.83     0.54     0.21     0.83        1     0.91
  495106           CIRCULAR             0.83     0.54     0.21     0.83        1     0.91
  495107           CIRCULAR             0.83     0.54     0.21     0.83        1     0.91
  495108           CIRCULAR             0.83     0.54     0.21     0.83        1     0.91
  495111           CIRCULAR             0.83     0.54     0.21     0.83        1     4.60
  495122           CIRCULAR             1.00     0.79     0.25     1.00        1     1.37
  495123           CIRCULAR             1.00     0.79     0.25     1.00        1     1.16
  495124           CIRCULAR             1.00     0.79     0.25     1.00        1     1.69
  495148           CIRCULAR             1.25     1.23     0.31     1.25        1     2.53
  495159           CIRCULAR             1.00     0.79     0.25     1.00        1     1.63
  495169           CIRCULAR             0.67     0.35     0.17     0.67        1     0.88
  495170           CIRCULAR             0.83     0.54     0.21     0.83        1     0.72
  495174           CIRCULAR             1.00     0.79     0.25     1.00        1     2.76
  495200           CIRCULAR             1.25     1.23     0.31     1.25        1     2.97
  495208           CIRCULAR             1.50     1.77     0.38     1.50        1     4.49
  495209           CIRCULAR             1.50     1.77     0.38     1.50        1    10.19
  495229           CIRCULAR             1.00     0.79     0.25     1.00        1     1.63
  495230           CIRCULAR             1.25     1.23     0.31     1.25        1     3.41
  CDT-15           CIRCULAR             1.75     2.41     0.44     1.75        1    20.11
  CDT-23           CIRCULAR             0.50     0.20     0.12     0.50        1     1.06
  CDT-31           CIRCULAR             2.00     3.14     0.50     2.00        1    30.93
  CDT-33           CIRCULAR             1.33     1.39     0.33     1.33        1    12.87
  CDT-35           CIRCULAR             1.25     1.23     0.31     1.25        1    22.78
  CDT-37           CIRCULAR             1.00     0.79     0.25     1.00        1     7.99
  CDT-39           CIRCULAR             1.00     0.79     0.25     1.00        1     7.48
  CDT-55           CIRCULAR             2.50     4.91     0.62     2.50        1     8.21
  CDT-57           CIRCULAR             1.00     0.79     0.25     1.00        1     4.72
  
  
  *************
  Shape Summary
  *************

  Shape 25
  Area:  
              0.0180     0.0603     0.1152     0.1804     0.2535 
              0.3334     0.4189     0.5099     0.6056     0.7060 
              0.8103     0.9176     1.0000     1.0000     1.0000 
              1.0000     1.0000     1.0000     1.0000     1.0000 
              1.0000     1.0000     1.0000     1.0000     1.0000 
              1.0000     1.0000     1.0000     1.0000     1.0000 
              1.0000     1.0000     1.0000     1.0000     1.0000 
              1.0000     1.0000     1.0000     1.0000     1.0000 
              1.0000     1.0000     1.0000     1.0000     1.0000 
              1.0000     1.0000     1.0000     1.0000     1.0000 
  Hrad:  
              0.2149     0.5225     0.7966     1.0703     1.3356 
              1.6073     1.8617     2.1092     2.3507     2.5809 
              2.8197     3.0470     1.7781     1.7415     1.7063 
              1.6726     1.6401     1.6089     1.5789     1.5499 
              1.5220     1.4951     1.4691     1.4441     1.4198 
              1.3964     1.3737     1.3517     1.3304     1.3098 
              1.2898     1.2705     1.2517     1.2334     1.2157 
              1.1984     1.1817     1.1654     1.1496     1.1341 
              1.1191     1.1045     1.0903     1.0764     1.0629 
              1.0497     1.0368     1.0242     1.0120     1.0000 
  Width: 
              0.3256     0.4419     0.5465     0.6279     0.6977 
              0.7488     0.8000     0.8465     0.8884     0.9302 
              0.9581     0.9860     0.0000     0.0000     0.0000 
              0.0000     0.0000     0.0000     0.0000     0.0000 
              0.0000     0.0000     0.0000     0.0000     0.0000 
              0.0000     0.0000     0.0000     0.0000     0.0000 
              0.0000     0.0000     0.0000     0.0000     0.0000 
              0.0000     0.0000     0.0000     0.0000     0.0000 
              0.0000     0.0000     0.0000     0.0000     0.0000 
              0.0000     0.0000     0.0000     0.0000     0.0000 

  Shape 33
  Area:  
              0.0123     0.0412     0.0787     0.1231     0.1731 
              0.2276     0.2860     0.3481     0.4135     0.4820 
              0.5532     0.6265     0.7018     0.7789     0.8578 
              0.9384     1.0000     1.0000     1.0000     1.0000 
              1.0000     1.0000     1.0000     1.0000     1.0000 
              1.0000     1.0000     1.0000     1.0000     1.0000 
              1.0000     1.0000     1.0000     1.0000     1.0000 
              1.0000     1.0000     1.0000     1.0000     1.0000 
              1.0000     1.0000     1.0000     1.0000     1.0000 
              1.0000     1.0000     1.0000     1.0000     1.0000 
  Hrad:  
              0.1510     0.3671     0.5598     0.7521     0.9385 
              1.1295     1.3082     1.4821     1.6518     1.8136 
              1.9814     2.1411     2.2956     2.4451     2.5883 
              2.7259     1.6109     1.5816     1.5533     1.5261 
              1.4998     1.4744     1.4498     1.4261     1.4031 
              1.3808     1.3592     1.3383     1.3181     1.2984 
              1.2793     1.2608     1.2428     1.2253     1.2083 
              1.1917     1.1756     1.1600     1.1447     1.1298 
              1.1154     1.1012     1.0875     1.0741     1.0610 
              1.0482     1.0357     1.0235     1.0116     1.0000 
  Width: 
              0.2979     0.4043     0.5000     0.5745     0.6383 
              0.6851     0.7319     0.7745     0.8128     0.8511 
              0.8766     0.9021     0.9255     0.9468     0.9681 
              0.9894     0.0000     0.0000     0.0000     0.0000 
              0.0000     0.0000     0.0000     0.0000     0.0000 
              0.0000     0.0000     0.0000     0.0000     0.0000 
              0.0000     0.0000     0.0000     0.0000     0.0000 
              0.0000     0.0000     0.0000     0.0000     0.0000 
              0.0000     0.0000     0.0000     0.0000     0.0000 
              0.0000     0.0000     0.0000     0.0000     0.0000 

  Shape 40
  Area:  
              0.0095     0.0319     0.0609     0.0954     0.1341 
              0.1763     0.2215     0.2697     0.3203     0.3734 
              0.4285     0.4853     0.5436     0.6034     0.6645 
              0.7266     0.7896     0.8535     0.9181     0.9835 
              1.0000     1.0000     1.0000     1.0000     1.0000 
              1.0000     1.0000     1.0000     1.0000     1.0000 
              1.0000     1.0000     1.0000     1.0000     1.0000 
              1.0000     1.0000     1.0000     1.0000     1.0000 
              1.0000     1.0000     1.0000     1.0000     1.0000 
              1.0000     1.0000     1.0000     1.0000     1.0000 
  Hrad:  
              0.1180     0.2870     0.4376     0.5879     0.7336 
              0.8829     1.0226     1.1585     1.2911     1.4176 
              1.5488     1.6736     1.7944     1.9112     2.0232 
              2.1352     2.2420     2.3441     2.4419     2.5358 
              1.4931     1.4681     1.4440     1.4206     1.3980 
              1.3761     1.3549     1.3343     1.3143     1.2949 
              1.2761     1.2578     1.2401     1.2228     1.2060 
              1.1897     1.1738     1.1583     1.1432     1.1285 
              1.1142     1.1002     1.0866     1.0733     1.0604 
              1.0477     1.0354     1.0233     1.0115     1.0000 
  Width: 
              0.2887     0.3918     0.4845     0.5567     0.6186 
              0.6639     0.7093     0.7505     0.7876     0.8247 
              0.8495     0.8742     0.8969     0.9175     0.9381 
              0.9505     0.9629     0.9753     0.9876     1.0000 
              0.0000     0.0000     0.0000     0.0000     0.0000 
              0.0000     0.0000     0.0000     0.0000     0.0000 
              0.0000     0.0000     0.0000     0.0000     0.0000 
              0.0000     0.0000     0.0000     0.0000     0.0000 
              0.0000     0.0000     0.0000     0.0000     0.0000 
              0.0000     0.0000     0.0000     0.0000     0.0000 

  Shape 45
  Area:  
              0.0082     0.0274     0.0523     0.0818     0.1150 
              0.1513     0.1900     0.2313     0.2748     0.3203 
              0.3676     0.4163     0.4664     0.5176     0.5700 
              0.6234     0.6774     0.7322     0.7876     0.8438 
              0.9004     0.9572     1.0000     1.0000     1.0000 
              1.0000     1.0000     1.0000     1.0000     1.0000 
              1.0000     1.0000     1.0000     1.0000     1.0000 
              1.0000     1.0000     1.0000     1.0000     1.0000 
              1.0000     1.0000     1.0000     1.0000     1.0000 
              1.0000     1.0000     1.0000     1.0000     1.0000 
  Hrad:  
              0.1016     0.2469     0.3765     0.5059     0.6312 
              0.7597     0.8799     0.9969     1.1110     1.2198 
              1.3327     1.4401     1.5440     1.6445     1.7409 
              1.8373     1.9292     2.0170     2.1011     2.1819 
              2.2616     2.3374     1.4421     1.4188     1.3963 
              1.3745     1.3534     1.3329     1.3131     1.2938 
              1.2750     1.2569     1.2392     1.2220     1.2053 
              1.1890     1.1732     1.1577     1.1427     1.1281 
              1.1138     1.0999     1.0863     1.0731     1.0602 
              1.0476     1.0353     1.0232     1.0115     1.0000 
  Width: 
              0.2857     0.3878     0.4796     0.5510     0.6122 
              0.6571     0.7020     0.7429     0.7796     0.8163 
              0.8408     0.8653     0.8878     0.9082     0.9286 
              0.9408     0.9531     0.9653     0.9776     0.9898 
              0.9939     0.9980     0.0000     0.0000     0.0000 
              0.0000     0.0000     0.0000     0.0000     0.0000 
              0.0000     0.0000     0.0000     0.0000     0.0000 
              0.0000     0.0000     0.0000     0.0000     0.0000 
              0.0000     0.0000     0.0000     0.0000     0.0000 
              0.0000     0.0000     0.0000     0.0000     0.0000 

  Shape 50
  Area:  
              0.0071     0.0239     0.0456     0.0715     0.1004 
              0.1321     0.1660     0.2020     0.2399     0.2797 
              0.3210     0.3635     0.4072     0.4520     0.4978 
              0.5444     0.5916     0.6394     0.6878     0.7368 
              0.7863     0.8361     0.8862     0.9366     0.9873 
              1.0000     1.0000     1.0000     1.0000     1.0000 
              1.0000     1.0000     1.0000     1.0000     1.0000 
              1.0000     1.0000     1.0000     1.0000     1.0000 
              1.0000     1.0000     1.0000     1.0000     1.0000 
              1.0000     1.0000     1.0000     1.0000     1.0000 
  Hrad:  
              0.0892     0.2170     0.3308     0.4445     0.5546 
              0.6675     0.7731     0.8759     0.9761     1.0717 
              1.1709     1.2653     1.3566     1.4449     1.5296 
              1.6143     1.6950     1.7722     1.8461     1.9171 
              1.9868     2.0535     2.1172     2.1782     2.2368 
              1.3714     1.3505     1.3302     1.3106     1.2915 
              1.2729     1.2549     1.2374     1.2203     1.2037 
              1.1876     1.1719     1.1566     1.1417     1.1272 
              1.1130     1.0992     1.0858     1.0726     1.0598 
              1.0473     1.0350     1.0231     1.0114     1.0000 
  Width: 
              0.2800     0.3800     0.4700     0.5400     0.6000 
              0.6440     0.6880     0.7280     0.7640     0.8000 
              0.8240     0.8480     0.8700     0.8900     0.9100 
              0.9220     0.9340     0.9460     0.9580     0.9700 
              0.9760     0.9820     0.9880     0.9940     1.0000 
              0.0000     0.0000     0.0000     0.0000     0.0000 
              0.0000     0.0000     0.0000     0.0000     0.0000 
              0.0000     0.0000     0.0000     0.0000     0.0000 
              0.0000     0.0000     0.0000     0.0000     0.0000 
              0.0000     0.0000     0.0000     0.0000     0.0000 

  Shape 75
  Area:  
              0.0027     0.0110     0.0243     0.0402     0.0583 
              0.0781     0.0992     0.1216     0.1453     0.1702 
              0.1961     0.2229     0.2503     0.2784     0.3072 
              0.3365     0.3661     0.3962     0.4266     0.4574 
              0.4885     0.5198     0.5513     0.5829     0.6148 
              0.6467     0.6783     0.7098     0.7411     0.7722 
              0.8030     0.8334     0.8635     0.8931     0.9224 
              0.9512     0.9793     1.0000     1.0000     1.0000 
              1.0000     1.0000     1.0000     1.0000     1.0000 
              1.0000     1.0000     1.0000     1.0000     1.0000 
  Hrad:  
              0.0533     0.1066     0.1732     0.2461     0.3127 
              0.3848     0.4519     0.5151     0.5750     0.6323 
              0.6936     0.7519     0.8082     0.8626     0.9147 
              0.9668     1.0164     1.0638     1.1091     1.1527 
              1.1955     1.2363     1.2753     1.3127     1.3486 
              1.3827     1.4146     1.4447     1.4730     1.4996 
              1.5233     1.5453     1.5656     1.5843     1.6016 
              1.6149     1.6266     1.1630     1.1474     1.1323 
              1.1175     1.1031     1.0891     1.0754     1.0620 
              1.0490     1.0363     1.0239     1.0118     1.0000 
  Width: 
              0.1720     0.3440     0.4640     0.5320     0.6000 
              0.6400     0.6800     0.7200     0.7600     0.8000 
              0.8240     0.8480     0.8700     0.8900     0.9100 
              0.9220     0.9340     0.9460     0.9580     0.9700 
              0.9760     0.9820     0.9880     0.9940     1.0000 
              0.9940     0.9880     0.9820     0.9760     0.9700 
              0.9580     0.9460     0.9340     0.9220     0.9100 
              0.8900     0.8700     0.0000     0.0000     0.0000 
              0.0000     0.0000     0.0000     0.0000     0.0000 
              0.0000     0.0000     0.0000     0.0000     0.0000 

  Shape 80
  Area:  
              0.0026     0.0103     0.0228     0.0378     0.0547 
              0.0733     0.0931     0.1141     0.1363     0.1597 
              0.1840     0.2091     0.2349     0.2612     0.2882 
              0.3157     0.3435     0.3717     0.4003     0.4292 
              0.4583     0.4877     0.5172     0.5469     0.5768 
              0.6067     0.6364     0.6660     0.6953     0.7245 
              0.7534     0.7820     0.8101     0.8380     0.8654 
              0.8924     0.9188     0.9446     0.9697     0.9940 
              1.0000     1.0000     1.0000     1.0000     1.0000 
              1.0000     1.0000     1.0000     1.0000     1.0000 
  Hrad:  
              0.0494     0.0987     0.1604     0.2280     0.2897 
              0.3565     0.4186     0.4771     0.5327     0.5858 
              0.6426     0.6965     0.7487     0.7991     0.8474 
              0.8956     0.9415     0.9854     1.0274     1.0678 
              1.1074     1.1452     1.1814     1.2160     1.2493 
              1.2808     1.3105     1.3383     1.3645     1.3891 
              1.4111     1.4315     1.4503     1.4676     1.4836 
              1.4960     1.5068     1.5155     1.5220     1.5271 
              1.1192     1.1046     1.0903     1.0764     1.0629 
              1.0497     1.0368     1.0242     1.0120     1.0000 
  Width: 
              0.1720     0.3440     0.4640     0.5320     0.6000 
              0.6400     0.6800     0.7200     0.7600     0.8000 
              0.8240     0.8480     0.8700     0.8900     0.9100 
              0.9220     0.9340     0.9460     0.9580     0.9700 
              0.9760     0.9820     0.9880     0.9940     1.0000 
              0.9940     0.9880     0.9820     0.9760     0.9700 
              0.9580     0.9460     0.9340     0.9220     0.9100 
              0.8900     0.8700     0.8480     0.8240     0.8000 
              0.0000     0.0000     0.0000     0.0000     0.0000 
              0.0000     0.0000     0.0000     0.0000     0.0000 
  
  
  ****************
  Analysis Options
  ****************
  Flow Units ............... MGD
  Process Models:
    Rainfall/Runoff ........ YES
    RDII ................... YES
    Snowmelt ............... NO
    Groundwater ............ NO
    Flow Routing ........... YES
    Ponding Allowed ........ NO
    Water Quality .......... NO
  Flow Routing Method ...... DYNWAVE
  Surcharge Method ......... EXTRAN
  Starting Date ............ 09/26/2017 00:00:00
  Ending Date .............. 09/30/2017 00:00:00
  Antecedent Dry Days ...... 5.0
  Report Time Step ......... 00:05:00
  Routing Time Step ........ 30.00 sec
  Variable Time Step ....... YES
  Maximum Trials ........... 8
  Number of Threads ........ 1
  Head Tolerance ........... 0.005000 ft
  
  
  **********************           Volume        Volume
  Rainfall Dependent I/I        acre-feet      10^6 gal
  **********************        ---------     ---------
  Sewershed Rainfall ......      5753.081      1874.727
  RDII Produced ...........       115.016        37.480
  RDII Ratio ..............         0.020
  
  
  *********************
  Control Actions Taken
  *********************
   09/26/2017: 00:00:00 Link 494031 setting changed to   0.10 by Control INNOVYZE-INIT-STATUS-0
   09/27/2017: 12:42:13 Link MILLERSCREWS setting changed to   0.12 by Control INNOVYZE-SIMPLE-RULE-0
