
  EPA STORM WATER MANAGEMENT MODEL - VERSION 5.2 (Build 5.2.4)
  ------------------------------------------------------------

  WARNING 02: maximum depth increased for Node CL-0530
  WARNING 02: maximum depth increased for Node ED-3950
  WARNING 02: maximum depth increased for Node GE-0090
  WARNING 02: maximum depth increased for Node NC-0230
  
  ****************
  Analysis Options
  ****************
  Flow Units ............... GPM
  Process Models:
    Rainfall/Runoff ........ NO
    RDII ................... NO
    Snowmelt ............... NO
    Groundwater ............ NO
    Flow Routing ........... YES
    Ponding Allowed ........ NO
    Water Quality .......... NO
  Flow Routing Method ...... DYNWAVE
  Surcharge Method ......... EXTRAN
  Starting Date ............ 01/01/2002 00:00:00
  Ending Date .............. 01/01/2002 23:00:00
  Antecedent Dry Days ...... 5.0
  Report Time Step ......... 00:05:00
  Routing Time Step ........ 2.00 sec
  Variable Time Step ....... YES
  Maximum Trials ........... 8
  Number of Threads ........ 1
  Head Tolerance ........... 0.005000 ft
  
  
  **************************        Volume        Volume
  Flow Routing Continuity        acre-feet      10^6 gal
  **************************     ---------     ---------
  Dry Weather Inflow .......        16.402         5.345
  Wet Weather Inflow .......         0.000         0.000
  Groundwater Inflow .......         0.000         0.000
  RDII Inflow ..............         0.000         0.000
  External Inflow ..........         0.000         0.000
  External Outflow .........        13.667         4.454
  Flooding Loss ............         0.157         0.051
  Evaporation Loss .........         0.000         0.000
  Exfiltration Loss ........         0.000         0.000
  Initial Stored Volume ....         0.177         0.058
  Final Stored Volume ......         2.908         0.948
  Continuity Error (%) .....        -0.924
  
  
  *************************
  Highest Continuity Errors
  *************************
  Node CE-0085 (98.08%)
  Node SG-2410 (94.63%)
  Node AIRPORT_PUMPS_SURROG (-70.25%)
  Node GE-0230 (57.66%)
  Node GW-2015 (31.50%)
  
  
  ***************************
  Time-Step Critical Elements
  ***************************
  Link PV-0940>PV-0935 (1.80%)
  
  
  ********************************
  Highest Flow Instability Indexes
  ********************************
  Link CC-0545>CC-0540 (31)
  Link CC-0550>CC-0545 (27)
  Link NC-1070>NC-1065 (27)
  Link PV-0940>PV-0935 (27)
  Link PV-3390>PV-3385 (18)
  
  
  *********************************
  Most Frequent Nonconverging Nodes
  *********************************
  Node OFALL-10 (43.64%)
  Node AIRPORT_PUMPS_SURROG (41.65%)
  Node CC-0545 (19.53%)
  Node CC-0540 (6.71%)
  Node WESTSHORE_PUMPS_SURR (3.64%)
  
  
  *************************
  Routing Time Step Summary
  *************************
  Minimum Time Step           :     0.05 sec
  Average Time Step           :     1.99 sec
  Maximum Time Step           :     2.00 sec
  % of Time in Steady State   :     0.00
  Average Iterations per Step :     5.45
  % of Steps Not Converging   :    43.64
  Time Step Frequencies       :
      2.000 -  1.516 sec      :    98.89 %
      1.516 -  1.149 sec      :     0.45 %
      1.149 -  0.871 sec      :     0.40 %
      0.871 -  0.660 sec      :     0.15 %
      0.660 -  0.500 sec      :     0.11 %
  
  
  ******************
  Node Depth Summary
  ******************
  
  ---------------------------------------------------------------------------------
                                 Average  Maximum  Maximum  Time of Max    Reported
                                   Depth    Depth      HGL   Occurrence   Max Depth
  Node                 Type         Feet     Feet     Feet  days hr:min        Feet
  ---------------------------------------------------------------------------------
  AIRPORT_PUMPS_SURROG JUNCTION    12.27    38.80  5264.30     0  00:00       34.89
  BAR_NUNN_#1_PUMPS_SU JUNCTION     0.45     0.67  5276.39     0  16:03        0.67
  BEGONIA_PUMPS_SURROG JUNCTION     0.72    11.43  5159.93     0  00:01        8.70
  BR-0020              JUNCTION     0.01     0.02  5088.78     0  17:00        0.02
  BR-0025              JUNCTION     0.03     0.04  5089.11     0  17:00        0.04
  BR-0030              JUNCTION     0.03     0.04  5090.14     0  17:00        0.04
  BR-0035              JUNCTION     0.03     0.04  5091.04     0  16:57        0.04
  BR-0040              JUNCTION     0.03     0.04  5091.64     0  16:56        0.04
  BR-0045              JUNCTION     0.01     0.02  5112.92     0  15:33        0.02
  BR-0050              JUNCTION     0.01     0.02  5149.02     0  15:28        0.02
  BR-0055              JUNCTION     0.01     0.02  5173.72     0  15:25        0.02
  BR-0060              JUNCTION     0.02     0.02  5189.92     0  15:21        0.02
  BR-0065              JUNCTION     0.02     0.02  5191.40     0  17:00        0.02
  BR-0100              JUNCTION     0.02     0.02  5199.22     0  15:17        0.02
  BR-0105              JUNCTION     0.02     0.03  5202.03     0  15:12        0.03
  BR-0110              JUNCTION     0.00     0.00  5203.24     0  00:00        0.00
  BR-0115              JUNCTION     0.00     0.00  5204.67     0  00:00        0.00
  BRYAN_STOCK_TRAIL_PU JUNCTION     0.30    10.64  5108.65     0  00:00        8.43
  CC-0005              JUNCTION     0.47     0.65  5108.34     0  22:19        0.65
  CC-0010              JUNCTION     0.38     0.54  5108.39     0  21:30        0.54
  CC-0015              JUNCTION     0.34     0.50  5108.51     0  21:14        0.50
  CC-0020              JUNCTION     0.31     0.44  5108.72     0  21:10        0.44
  CC-0025              JUNCTION     0.33     0.47  5108.80     0  21:08        0.47
  CC-0030              JUNCTION     0.29     0.41  5108.94     0  21:07        0.41
  CC-0035              JUNCTION     0.38     0.53  5109.13     0  21:06        0.53
  CC-0040              JUNCTION     0.29     0.42  5109.19     0  21:05        0.42
  CC-0045              JUNCTION     0.28     0.39  5109.40     0  21:03        0.39
  CC-0050              JUNCTION     0.33     0.46  5109.59     0  21:02        0.46
  CC-0055              JUNCTION     0.24     0.34  5114.08     0  21:01        0.34
  CC-0060              JUNCTION     0.38     0.52  5114.48     0  21:00        0.52
  CC-0065              JUNCTION     0.36     0.49  5114.50     0  21:00        0.49
  CC-0070              JUNCTION     0.32     0.45  5114.62     0  21:00        0.45
  CC-0075              JUNCTION     0.34     0.48  5114.77     0  20:58        0.48
  CC-0080              JUNCTION     0.34     0.47  5114.99     0  20:55        0.47
  CC-0085              JUNCTION     0.34     0.47  5115.11     0  20:52        0.47
  CC-0090              JUNCTION     0.34     0.46  5115.22     0  20:50        0.46
  CC-0095              JUNCTION     0.27     0.37  5115.65     0  20:46        0.37
  CC-0100              JUNCTION     0.34     0.46  5115.90     0  20:42        0.46
  CC-0105              JUNCTION     0.29     0.39  5116.10     0  20:40        0.39
  CC-0110              JUNCTION     0.33     0.44  5116.32     0  20:37        0.44
  CC-0115              JUNCTION     0.32     0.44  5116.48     0  20:34        0.44
  CC-0120              JUNCTION     0.31     0.42  5116.63     0  20:31        0.42
  CC-0125              JUNCTION     0.24     0.32  5119.15     0  20:29        0.32
  CC-0130              JUNCTION     0.24     0.33  5120.00     0  20:24        0.33
  CC-0135              JUNCTION     0.30     0.39  5120.78     0  20:24        0.39
  CC-0140              JUNCTION     0.18     0.24  5121.26     0  20:21        0.24
  CC-0145              JUNCTION     0.18     0.24  5121.89     0  20:19        0.24
  CC-0150              JUNCTION     0.10     0.13  5126.99     0  20:17        0.13
  CC-0155              JUNCTION     0.09     0.11  5135.18     0  20:16        0.11
  CC-0160              JUNCTION     0.17     0.23  5136.05     0  20:15        0.23
  CC-0165              JUNCTION     0.16     0.21  5136.58     0  20:12        0.21
  CC-0170              JUNCTION     0.15     0.19  5136.65     0  20:11        0.19
  CC-0175              JUNCTION     0.14     0.18  5137.23     0  19:10        0.18
  CC-0180              JUNCTION     0.13     0.18  5137.73     0  18:08        0.18
  CC-0185              JUNCTION     0.13     0.17  5138.22     0  18:03        0.17
  CC-0190              JUNCTION     0.09     0.13  5138.29     0  17:00        0.13
  CC-0195              JUNCTION     0.11     0.16  5139.25     0  17:00        0.16
  CC-0200              JUNCTION     0.12     0.18  5139.93     0  17:00        0.18
  CC-0205              JUNCTION     0.11     0.16  5140.75     0  17:00        0.16
  CC-0210              JUNCTION     0.12     0.17  5141.31     0  17:00        0.17
  CC-0215              JUNCTION     0.11     0.16  5142.26     0  17:00        0.16
  CC-0220              JUNCTION     0.11     0.16  5143.13     0  17:00        0.16
  CC-0225              JUNCTION     0.10     0.15  5144.23     0  17:00        0.15
  CC-0230              JUNCTION     0.09     0.14  5148.23     0  17:00        0.14
  CC-0235              JUNCTION     0.11     0.16  5149.19     0  17:00        0.16
  CC-0240              JUNCTION     0.10     0.15  5149.93     0  17:00        0.15
  CC-0245              JUNCTION     0.08     0.12  5151.49     0  17:00        0.12
  CC-0250              JUNCTION     0.06     0.09  5157.58     0  17:00        0.09
  CC-0255              JUNCTION     0.06     0.09  5165.65     0  17:00        0.09
  CC-0260              JUNCTION     0.06     0.09  5174.04     0  17:00        0.09
  CC-0265              JUNCTION     0.06     0.09  5182.50     0  17:00        0.09
  CC-0270              JUNCTION     0.08     0.11  5183.49     0  17:00        0.11
  CC-0275              JUNCTION     0.08     0.11  5186.11     0  17:00        0.11
  CC-0280              JUNCTION     0.08     0.12  5188.26     0  17:00        0.12
  CC-0285              JUNCTION     0.07     0.11  5190.28     0  17:00        0.11
  CC-0290              JUNCTION     0.07     0.11  5192.47     0  17:00        0.11
  CC-0295              JUNCTION     0.07     0.11  5194.93     0  17:00        0.11
  CC-0300              JUNCTION     0.08     0.12  5196.50     0  17:00        0.12
  CC-0305              JUNCTION     0.08     0.12  5198.28     0  17:00        0.12
  CC-0310              JUNCTION     0.08     0.12  5199.54     0  17:00        0.12
  CC-0315              JUNCTION     0.08     0.12  5199.81     0  17:00        0.12
  CC-0320              JUNCTION     0.07     0.11  5200.76     0  17:00        0.11
  CC-0325              JUNCTION     0.07     0.10  5201.25     0  17:00        0.10
  CC-0330              JUNCTION     0.07     0.11  5203.88     0  17:00        0.11
  CC-0335              JUNCTION     0.07     0.10  5206.37     0  17:00        0.10
  CC-0340              JUNCTION     0.07     0.10  5207.46     0  17:00        0.10
  CC-0345              JUNCTION     0.10     0.14  5208.23     0  17:00        0.14
  CC-0350              JUNCTION     0.08     0.12  5208.88     0  17:00        0.12
  CC-0355              JUNCTION     0.08     0.12  5209.53     0  17:00        0.12
  CC-0360              JUNCTION     0.08     0.12  5210.68     0  17:00        0.12
  CC-0365              JUNCTION     0.08     0.12  5211.66     0  17:00        0.12
  CC-0370              JUNCTION     0.08     0.12  5212.06     0  17:00        0.12
  CC-0375              JUNCTION     0.08     0.12  5212.39     0  17:00        0.12
  CC-0380              JUNCTION     0.08     0.12  5212.74     0  17:00        0.12
  CC-0385              JUNCTION     0.07     0.11  5214.35     0  17:00        0.11
  CC-0390              JUNCTION     0.07     0.11  5215.58     0  17:00        0.11
  CC-0395              JUNCTION     0.08     0.11  5216.53     0  17:00        0.11
  CC-0400              JUNCTION     0.08     0.11  5217.41     0  17:00        0.11
  CC-0405              JUNCTION     0.08     0.11  5217.98     0  17:00        0.11
  CC-0410              JUNCTION     0.07     0.10  5218.69     0  17:00        0.10
  CC-0415              JUNCTION     0.07     0.11  5219.22     0  17:00        0.11
  CC-0420              JUNCTION     0.08     0.12  5219.91     0  17:00        0.12
  CC-0425              JUNCTION     0.08     0.11  5220.76     0  17:00        0.11
  CC-0430              JUNCTION     0.07     0.10  5221.88     0  17:00        0.10
  CC-0435              JUNCTION     0.07     0.10  5222.80     0  17:00        0.10
  CC-0440              JUNCTION     0.07     0.10  5223.67     0  17:00        0.10
  CC-0445              JUNCTION     0.06     0.09  5224.78     0  17:00        0.09
  CC-0450              JUNCTION     0.07     0.10  5225.66     0  17:00        0.10
  CC-0455              JUNCTION     0.06     0.08  5226.64     0  17:00        0.08
  CC-0460              JUNCTION     0.06     0.08  5227.57     0  17:00        0.08
  CC-0465              JUNCTION     0.06     0.09  5228.35     0  17:00        0.09
  CC-0470              JUNCTION     0.06     0.08  5229.13     0  17:00        0.08
  CC-0475              JUNCTION     0.06     0.08  5229.77     0  17:00        0.08
  CC-0480              JUNCTION     0.06     0.08  5230.59     0  17:00        0.08
  CC-0485              JUNCTION     0.06     0.08  5231.19     0  17:00        0.08
  CC-0490              JUNCTION     0.06     0.08  5231.78     0  17:00        0.08
  CC-0495              JUNCTION     0.05     0.07  5232.65     0  17:00        0.07
  CC-0500              JUNCTION     0.05     0.07  5233.50     0  17:00        0.07
  CC-0505              JUNCTION     0.04     0.06  5234.60     0  17:00        0.06
  CC-0510              JUNCTION     0.04     0.06  5235.37     0  17:00        0.06
  CC-0515              JUNCTION     0.04     0.05  5235.95     0  17:00        0.05
  CC-0520              JUNCTION     0.03     0.05  5236.72     0  17:00        0.05
  CC-0525              JUNCTION     0.03     0.04  5237.41     0  17:00        0.04
  CC-0530              JUNCTION     0.02     0.03  5238.11     0  17:00        0.03
  CC-0535              JUNCTION     0.02     0.02  5238.93     0  17:00        0.02
  CC-0540              JUNCTION     4.39     6.60  5238.80     0  00:01        4.89
  CC-0545              JUNCTION    11.55    11.90  5236.90     0  00:00       11.90
  CC-0555              JUNCTION     0.05     0.07  5206.18     0  15:42        0.07
  CC-0560              JUNCTION     0.11     0.15  5206.65     0  15:41        0.15
  CC-0565              JUNCTION     0.08     0.12  5207.61     0  15:33        0.11
  CC-0570              JUNCTION     0.09     0.13  5208.29     0  15:24        0.13
  CC-0575              JUNCTION     0.09     0.13  5208.86     0  15:22        0.13
  CC-0580              JUNCTION     0.11     0.15  5209.27     0  15:10        0.15
  CC-0585              JUNCTION     0.00     0.00  5209.75     0  00:00        0.00
  CC-0590              JUNCTION     0.05     0.07  5223.46     0  15:08        0.07
  CC-0595              JUNCTION     0.05     0.07  5233.03     0  15:04        0.07
  CC-0600              JUNCTION     0.05     0.07  5242.58     0  15:01        0.07
  CC-0605              JUNCTION     0.00     0.00  5205.08     0  00:00        0.00
  CC-0610              JUNCTION     0.00     0.00  5226.34     0  00:00        0.00
  CC-0615              JUNCTION     0.00     0.00  5224.30     0  00:00        0.00
  CC-0620              JUNCTION     0.00     0.00  5220.62     0  00:00        0.00
  CC-0625              JUNCTION     0.00     0.00  5219.07     0  00:00        0.00
  CC-0630              JUNCTION     0.00     0.00  5212.36     0  00:00        0.00
  CC-0635              JUNCTION     0.00     0.00  5212.48     0  00:00        0.00
  CC-0640              JUNCTION     0.00     0.00  5207.62     0  00:00        0.00
  CC-0645              JUNCTION     0.00     0.00  5207.63     0  00:00        0.00
  CC-0650              JUNCTION     0.00     0.00  5201.65     0  00:00        0.00
  CC-0655              JUNCTION     0.00     0.00  5195.67     0  00:00        0.00
  CC-0660              JUNCTION     0.05     0.07  5138.23     0  07:36        0.07
  CC-0665              JUNCTION     0.03     0.04  5138.97     0  07:38        0.04
  CC-0670              JUNCTION     0.13     0.18  5120.45     0  20:24        0.18
  CC-0675              JUNCTION     0.09     0.12  5121.22     0  20:04        0.12
  CC-0680              JUNCTION     0.11     0.15  5133.49     0  19:02        0.15
  CC-0685              JUNCTION     0.08     0.10  5134.62     0  18:00        0.10
  CC-0690              JUNCTION     0.08     0.12  5142.99     0  18:00        0.12
  CC-0695              JUNCTION     0.12     0.18  5143.22     0  18:00        0.18
  CC-0700              JUNCTION     0.07     0.10  5150.08     0  18:00        0.10
  CC-0705              JUNCTION     0.08     0.11  5161.06     0  18:00        0.11
  CC-0710              JUNCTION     0.09     0.12  5166.56     0  18:00        0.12
  CC-0715              JUNCTION     0.06     0.08  5181.71     0  18:00        0.08
  CC-0720              JUNCTION     0.00     0.00  5182.76     0  00:00        0.00
  CC-0725              JUNCTION     0.00     0.00  5182.75     0  00:00        0.00
  CC-0730              JUNCTION     0.06     0.08  5198.51     0  18:00        0.08
  CC-0735              JUNCTION     0.06     0.09  5209.31     0  18:00        0.09
  CC-0740              JUNCTION     0.07     0.10  5216.88     0  18:00        0.10
  CC-0745              JUNCTION     0.06     0.09  5224.37     0  18:00        0.09
  CC-0750              JUNCTION     0.05     0.07  5233.29     0  18:00        0.07
  CC-0755              JUNCTION     0.06     0.09  5250.23     0  18:00        0.09
  CC-0760              JUNCTION     0.04     0.06  5276.69     0  18:00        0.06
  CC-0765              JUNCTION     0.00     0.00  5277.53     0  00:00        0.00
  CC-0770              JUNCTION     0.00     0.00  5277.53     0  00:00        0.00
  CC-0775              JUNCTION     0.06     0.09  5290.43     0  18:00        0.09
  CC-0780              JUNCTION     0.00     0.00  5292.05     0  00:00        0.00
  CC-0785              JUNCTION     0.07     0.11  5293.93     0  18:00        0.11
  CC-0790              JUNCTION     0.08     0.12  5297.74     0  18:00        0.12
  CC-0795              JUNCTION     0.11     0.16  5298.64     0  18:00        0.16
  CC-0800              JUNCTION     0.10     0.15  5299.57     0  18:00        0.15
  CC-0805              JUNCTION     0.11     0.16  5300.20     0  18:00        0.16
  CC-0810              JUNCTION     0.13     0.18  5300.78     0  18:00        0.18
  CC-0815              JUNCTION     0.10     0.14  5302.04     0  18:00        0.14
  CC-0820              JUNCTION     0.11     0.16  5302.76     0  18:00        0.16
  CC-0825              JUNCTION     0.11     0.16  5303.26     0  18:00        0.16
  CC-0830              JUNCTION     0.11     0.15  5304.25     0  18:00        0.15
  CC-0835              JUNCTION     0.09     0.12  5304.76     0  18:00        0.12
  CC-0840              JUNCTION     0.08     0.12  5307.70     0  18:00        0.12
  CC-0845              JUNCTION     0.08     0.12  5309.90     0  18:00        0.12
  CC-0850              JUNCTION     0.06     0.08  5324.97     0  18:00        0.08
  CC-0855              JUNCTION     0.06     0.08  5339.53     0  18:00        0.08
  CC-0860              JUNCTION     0.06     0.08  5341.05     0  18:00        0.08
  CC-0865              JUNCTION     0.06     0.08  5349.74     0  18:00        0.08
  CC-0870              JUNCTION     0.11     0.16  5350.56     0  18:00        0.16
  CC-0875              JUNCTION     0.10     0.14  5351.51     0  19:00        0.14
  CC-0880              JUNCTION     0.10     0.14  5352.65     0  19:00        0.14
  CC-0885              JUNCTION     0.10     0.14  5353.66     0  19:00        0.14
  CC-0890              JUNCTION     0.09     0.13  5354.79     0  18:59        0.13
  CC-0935              JUNCTION     0.04     0.05  5261.19     0  17:44        0.05
  CC-0940              JUNCTION     0.12     0.16  5261.83     0  17:44        0.16
  CC-0945              JUNCTION     0.09     0.12  5263.23     0  17:39        0.12
  CC-0950              JUNCTION     0.09     0.12  5264.91     0  18:29        0.12
  CC-0955              JUNCTION     0.09     0.13  5266.18     0  18:25        0.13
  CC-0960              JUNCTION     0.09     0.12  5267.34     0  18:22        0.12
  CC-0965              JUNCTION     0.09     0.12  5267.77     0  18:20        0.12
  CC-0970              JUNCTION     0.09     0.13  5269.15     0  18:17        0.13
  CC-0975              JUNCTION     0.10     0.14  5269.87     0  18:12        0.14
  CC-0980              JUNCTION     0.09     0.12  5271.10     0  18:08        0.12
  CC-0985              JUNCTION     0.09     0.13  5271.84     0  18:03        0.13
  CC-0990              JUNCTION     0.09     0.13  5272.55     0  16:56        0.13
  CC-0995              JUNCTION     0.09     0.13  5273.25     0  16:51        0.13
  CC-1000              JUNCTION     0.06     0.09  5274.29     0  16:51        0.09
  CC-1005              JUNCTION     0.02     0.04  5274.29     0  15:50        0.04
  CC-1010              JUNCTION     0.05     0.07  5275.29     0  16:49        0.07
  CC-1080              JUNCTION     0.04     0.05  5220.12     0  16:56        0.05
  CC-1085              JUNCTION     0.11     0.16  5220.34     0  16:58        0.16
  CC-1090              JUNCTION     0.00     0.00  5222.06     0  00:00        0.00
  CC-1095              JUNCTION     0.08     0.11  5226.58     0  16:58        0.11
  CC-1100              JUNCTION     0.07     0.10  5227.80     0  16:37        0.10
  CC-1105              JUNCTION     0.07     0.10  5228.87     0  17:00        0.10
  CC-1110              JUNCTION     0.06     0.09  5230.06     0  16:52        0.09
  CC-1115              JUNCTION     0.06     0.09  5230.96     0  16:36        0.09
  CC-1120              JUNCTION     0.06     0.08  5231.84     0  16:54        0.08
  CC-1125              JUNCTION     0.05     0.06  5233.09     0  15:43        0.06
  CC-1130              JUNCTION     0.00     0.00  5231.56     0  00:00        0.00
  CC-1135              JUNCTION     0.00     0.00  5229.45     0  00:00        0.00
  CC-1140              JUNCTION     0.00     0.00  5273.02     0  00:00        0.00
  CC-1145              JUNCTION     0.00     0.00  5272.06     0  00:00        0.00
  CC-1150              JUNCTION     0.00     0.00  5270.84     0  00:00        0.00
  CC-1155              JUNCTION     0.00     0.00  5264.28     0  00:00        0.00
  CC-1160              JUNCTION     0.00     0.00  5267.02     0  00:00        0.00
  CC-1165              JUNCTION     0.00     0.00  5267.02     0  00:00        0.00
  CC-1170              JUNCTION     0.00     0.00  5263.03     0  00:00        0.00
  CC-1175              JUNCTION     0.00     0.00  5306.19     0  00:00        0.00
  CC-1180              JUNCTION     0.00     0.00  5304.60     0  00:00        0.00
  CC-1185              JUNCTION     0.00     0.00  5303.70     0  00:00        0.00
  CC-1190              JUNCTION     0.00     0.00  5302.98     0  00:00        0.00
  CC-1195              JUNCTION     0.00     0.00  5301.88     0  00:00        0.00
  CC-1200              JUNCTION     0.00     0.00  5301.00     0  00:00        0.00
  CC-1205              JUNCTION     0.00     0.00  5300.38     0  00:00        0.00
  CC-1210              JUNCTION     0.00     0.00  5292.05     0  00:00        0.00
  CC-1215              JUNCTION     0.00     0.00  5252.53     0  00:00        0.00
  CC-1220              JUNCTION     0.00     0.00  5251.83     0  00:00        0.00
  CC-1225              JUNCTION     0.00     0.00  5235.03     0  00:00        0.00
  CC-1230              JUNCTION     0.00     0.00  5235.05     0  00:00        0.00
  CC-1235              JUNCTION     0.00     0.00  5217.75     0  00:00        0.00
  CC-1240              JUNCTION     0.00     0.00  5217.75     0  00:00        0.00
  CC-1245              JUNCTION     0.04     0.05  5172.77     0  18:00        0.05
  CC-1250              JUNCTION     0.04     0.04  5184.51     0  18:00        0.04
  CC-1255              JUNCTION     0.03     0.04  5191.68     0  20:19        0.04
  CC-1260              JUNCTION     0.03     0.04  5207.17     0  20:17        0.04
  CC-1265              JUNCTION     0.04     0.05  5208.57     0  20:15        0.05
  CC-1270              JUNCTION     0.03     0.03  5217.11     0  20:15        0.03
  CC-1275              JUNCTION     0.00     0.00  5218.19     0  00:00        0.00
  CC-1280              JUNCTION     0.04     0.06  5217.28     0  20:14        0.06
  CC-1305              JUNCTION     0.03     0.04  5217.57     0  18:15        0.04
  CC-1310              JUNCTION     0.03     0.05  5219.76     0  20:12        0.05
  CC-1315              JUNCTION     0.03     0.04  5222.17     0  20:07        0.04
  CC-1320              JUNCTION     0.03     0.04  5222.42     0  17:00        0.04
  CC-1325              JUNCTION     0.02     0.03  5224.19     0  17:46        0.03
  CC-1330              JUNCTION     0.03     0.05  5224.90     0  17:42        0.05
  CC-1335              JUNCTION     0.03     0.04  5225.79     0  17:37        0.04
  CC-1340              JUNCTION     0.03     0.04  5226.52     0  17:29        0.04
  CC-1345              JUNCTION     0.03     0.04  5227.38     0  17:26        0.04
  CC-1350              JUNCTION     0.03     0.04  5228.11     0  17:18        0.04
  CC-1355              JUNCTION     0.02     0.04  5229.65     0  17:16        0.04
  CC-1360              JUNCTION     0.03     0.04  5230.24     0  17:11        0.04
  CC-1365              JUNCTION     0.01     0.02  5238.20     0  16:28        0.02
  CC-1370              JUNCTION     0.01     0.02  5249.82     0  16:24        0.02
  CC-1375              JUNCTION     0.01     0.02  5259.31     0  16:21        0.02
  CC-1380              JUNCTION     0.01     0.02  5270.10     0  16:17        0.02
  CC-1385              JUNCTION     0.00     0.00  5278.75     0  00:00        0.00
  CC-1390              JUNCTION     0.00     0.00  5284.60     0  00:00        0.00
  CC-1395              JUNCTION     0.00     0.00  5287.96     0  00:00        0.00
  CC-1400              JUNCTION     0.00     0.00  5292.23     0  00:00        0.00
  CC-1405              JUNCTION     0.00     0.00  5299.48     0  00:00        0.00
  CC-1410              JUNCTION     0.00     0.00  5299.80     0  00:00        0.00
  CC-1415              JUNCTION     0.02     0.03  5270.39     0  16:14        0.03
  CC-1420              JUNCTION     0.02     0.03  5272.08     0  16:04        0.03
  CC-1425              JUNCTION     0.02     0.03  5273.58     0  15:44        0.03
  CC-1430              JUNCTION     0.03     0.04  5274.42     0  15:30        0.04
  CC-1435              JUNCTION     0.02     0.03  5275.97     0  15:27        0.03
  CC-1440              JUNCTION     0.03     0.04  5276.78     0  15:10        0.04
  CC-1445              JUNCTION     0.02     0.03  5231.02     0  17:12        0.03
  CC-1450              JUNCTION     0.02     0.03  5231.74     0  16:51        0.03
  CC-1455              JUNCTION     0.02     0.03  5232.55     0  16:54        0.03
  CC-1460              JUNCTION     0.02     0.03  5233.42     0  16:42        0.03
  CC-1465              JUNCTION     0.02     0.03  5234.16     0  16:20        0.03
  CC-1470              JUNCTION     0.02     0.03  5234.67     0  16:27        0.03
  CC-1475              JUNCTION     0.00     0.00  5235.77     0  00:00        0.00
  CC-1485              JUNCTION     0.03     0.04  5234.98     0  16:07        0.04
  CC-1490              JUNCTION     0.02     0.03  5235.57     0  16:16        0.03
  CC-1495              JUNCTION     0.03     0.05  5235.98     0  15:55        0.05
  CC-1500              JUNCTION     0.02     0.03  5236.56     0  17:00        0.03
  CC-1505              JUNCTION     0.03     0.04  5236.61     0  16:59        0.04
  CC-1510              JUNCTION     0.03     0.04  5236.65     0  17:00        0.04
  CC-1515              JUNCTION     0.02     0.03  5236.93     0  16:58        0.03
  CC-1520              JUNCTION     0.00     0.00  5238.00     0  00:00        0.00
  CC-1525              JUNCTION     0.02     0.03  5237.57     0  16:13        0.03
  CC-1530              JUNCTION     0.00     0.00  5238.93     0  00:00        0.00
  CC-1535              JUNCTION     0.00     0.00  5237.68     0  00:00        0.00
  CC-1540              JUNCTION     0.00     0.00  5237.80     0  00:00        0.00
  CC-1545              JUNCTION     0.00     0.00  5236.57     0  00:00        0.00
  CC-1550              JUNCTION     0.00     0.00  5244.16     0  00:00        0.00
  CC-1555              JUNCTION     0.00     0.00  5259.35     0  00:00        0.00
  CC-1560              JUNCTION     0.00     0.00  5276.58     0  00:00        0.00
  CC-1685              JUNCTION     0.05     0.10  5143.22     0  18:03        0.10
  CE-0005              JUNCTION     0.42     0.53  5095.89     0  15:37        0.53
  CE-0010              JUNCTION     0.03     0.05  5102.75     0  17:00        0.05
  CE-0015              JUNCTION     0.06     0.08  5102.98     0  17:00        0.08
  CE-0020              JUNCTION     0.05     0.07  5103.47     0  17:00        0.07
  CE-0025              JUNCTION     0.05     0.07  5103.97     0  17:00        0.07
  CE-0030              JUNCTION     0.04     0.06  5104.46     0  17:00        0.06
  CE-0035              JUNCTION     0.04     0.06  5105.06     0  17:00        0.06
  CE-0040              JUNCTION     0.04     0.06  5105.46     0  17:00        0.06
  CE-0045              JUNCTION     0.04     0.05  5106.05     0  16:59        0.05
  CE-0050              JUNCTION     0.02     0.03  5112.33     0  16:44        0.03
  CE-0055              JUNCTION     0.02     0.02  5121.12     0  15:25        0.02
  CE-0060              JUNCTION     0.02     0.03  5123.13     0  15:20        0.03
  CE-0065              JUNCTION     0.02     0.02  5124.92     0  15:18        0.02
  CE-0070              JUNCTION     0.02     0.03  5125.53     0  15:17        0.03
  CE-0075              JUNCTION     0.02     0.03  5126.51     0  15:10        0.03
  CE-0080              JUNCTION     0.02     0.03  5127.23     0  15:03        0.03
  CE-0085              JUNCTION     0.30     0.71  5115.01     0  22:34        0.71
  CE-0090              JUNCTION     0.01     0.01  5119.31     0  17:00        0.01
  CE-0095              JUNCTION     0.00     0.01  5120.81     0  16:39        0.01
  CE-0100              JUNCTION     0.02     0.03  5114.33     0  15:28        0.03
  CE-0105              JUNCTION     0.01     0.02  5119.52     0  16:19        0.02
  CE-0110              JUNCTION     0.01     0.01  5125.51     0  15:53        0.01
  CE-0115              JUNCTION     0.01     0.01  5115.11     0  16:28        0.01
  CE-0120              JUNCTION     0.01     0.01  5120.01     0  16:32        0.01
  CE-0125              JUNCTION     0.01     0.02  5109.02     0  16:28        0.02
  CE-0130              JUNCTION     0.01     0.01  5114.01     0  15:55        0.01
  CE-0135              JUNCTION     0.01     0.02  5108.02     0  16:59        0.02
  CE-0140              JUNCTION     0.01     0.02  5105.82     0  16:50        0.02
  CE-0145              JUNCTION     0.27     0.35  5095.99     0  15:36        0.35
  CE-0150              JUNCTION     0.35     0.44  5096.34     0  15:35        0.44
  CE-0155              JUNCTION     0.04     0.05  5104.20     0  16:53        0.05
  CE-0160              JUNCTION     0.04     0.05  5106.11     0  16:58        0.05
  CE-0165              JUNCTION     0.02     0.03  5110.83     0  15:28        0.03
  CE-0170              JUNCTION     0.02     0.03  5113.83     0  15:26        0.03
  CE-0175              JUNCTION     0.02     0.02  5116.92     0  15:24        0.02
  CE-0180              JUNCTION     0.01     0.02  5117.22     0  15:23        0.02
  CE-0185              JUNCTION     0.01     0.02  5118.32     0  15:22        0.02
  CE-0190              JUNCTION     0.00     0.00  5119.00     0  00:00        0.00
  CE-0195              JUNCTION     0.00     0.00  5123.20     0  00:00        0.00
  CE-0200              JUNCTION     0.02     0.03  5118.63     0  15:07        0.03
  CE-0205              JUNCTION     0.02     0.03  5109.03     0  16:59        0.03
  CE-0210              JUNCTION     0.02     0.03  5110.93     0  16:57        0.03
  CE-0215              JUNCTION     0.02     0.03  5114.23     0  16:51        0.03
  CE-0220              JUNCTION     0.01     0.02  5117.99     0  16:52        0.02
  CE-0225              JUNCTION     0.01     0.02  5121.02     0  16:19        0.02
  CE-0230              JUNCTION     0.01     0.01  5124.71     0  16:52        0.01
  CE-0235              JUNCTION     0.00     0.00  5125.90     0  16:55        0.00
  CE-0240              JUNCTION     0.01     0.02  5125.62     0  15:04        0.02
  CE-0245              JUNCTION     0.41     0.52  5096.52     0  15:34        0.52
  CE-0250              JUNCTION     0.39     0.49  5096.52     0  15:34        0.49
  CE-0255              JUNCTION     0.28     0.36  5096.63     0  21:11        0.36
  CE-0260              JUNCTION     0.29     0.37  5096.97     0  21:09        0.37
  CE-0265              JUNCTION     0.24     0.31  5096.95     0  21:09        0.31
  CE-0270              JUNCTION     0.04     0.06  5101.16     0  16:23        0.06
  CE-0275              JUNCTION     0.02     0.03  5105.73     0  16:03        0.03
  CE-0280              JUNCTION     0.02     0.02  5109.42     0  16:10        0.02
  CE-0285              JUNCTION     0.01     0.02  5116.82     0  16:25        0.02
  CE-0290              JUNCTION     0.03     0.04  5117.04     0  16:52        0.04
  CE-0295              JUNCTION     0.02     0.03  5118.73     0  16:52        0.03
  CE-0300              JUNCTION     0.01     0.02  5123.52     0  16:46        0.02
  CE-0305              JUNCTION     0.01     0.02  5124.62     0  15:50        0.02
  CE-0310              JUNCTION     0.00     0.01  5127.61     0  16:25        0.01
  CE-0315              JUNCTION     0.00     0.00  5129.80     0  00:00        0.00
  CE-0320              JUNCTION     0.44     0.55  5097.35     0  21:08        0.55
  CE-0325              JUNCTION     0.07     0.09  5099.99     0  16:45        0.09
  CE-0330              JUNCTION     0.06     0.09  5100.49     0  16:59        0.09
  CE-0335              JUNCTION     0.04     0.05  5103.35     0  16:53        0.05
  CE-0340              JUNCTION     0.03     0.03  5115.27     0  16:58        0.03
  CE-0345              JUNCTION     0.03     0.04  5121.64     0  15:05        0.04
  CE-0350              JUNCTION     0.29     0.38  5097.68     0  21:07        0.38
  CE-0355              JUNCTION     0.03     0.04  5101.24     0  17:00        0.04
  CE-0360              JUNCTION     0.05     0.07  5101.67     0  17:00        0.07
  CE-0365              JUNCTION     0.05     0.06  5102.06     0  17:00        0.06
  CE-0370              JUNCTION     0.02     0.03  5105.43     0  16:59        0.03
  CE-0375              JUNCTION     0.03     0.04  5109.29     0  17:00        0.04
  CE-0376              JUNCTION     0.00     0.00  5115.24     0  00:00        0.00
  CE-0380              JUNCTION     0.02     0.02  5113.22     0  17:00        0.02
  CE-0385              JUNCTION     0.01     0.01  5113.91     0  16:09        0.01
  CE-0390              JUNCTION     0.31     0.40  5098.30     0  21:05        0.40
  CE-0395              JUNCTION     0.08     0.11  5102.21     0  17:00        0.11
  CE-0400              JUNCTION     0.07     0.09  5102.59     0  17:00        0.09
  CE-0405              JUNCTION     0.06     0.08  5102.95     0  17:00        0.08
  CE-0410              JUNCTION     0.07     0.09  5103.29     0  17:00        0.09
  CE-0415              JUNCTION     0.02     0.03  5109.03     0  17:00        0.03
  CE-0420              JUNCTION     0.06     0.09  5109.79     0  16:15        0.09
  CE-0425              JUNCTION     0.05     0.07  5110.57     0  16:28        0.07
  CE-0430              JUNCTION     0.06     0.08  5111.08     0  16:14        0.08
  CE-0435              JUNCTION     0.03     0.04  5113.14     0  16:52        0.04
  CE-0440              JUNCTION     0.03     0.04  5116.44     0  16:59        0.04
  CE-0445              JUNCTION     0.03     0.04  5120.04     0  16:30        0.04
  CE-0450              JUNCTION     0.02     0.03  5125.53     0  16:38        0.03
  CE-0455              JUNCTION     0.02     0.03  5133.13     0  16:19        0.03
  CE-0460              JUNCTION     0.02     0.03  5140.53     0  16:07        0.03
  CE-0465              JUNCTION     0.02     0.03  5146.03     0  16:58        0.03
  CE-0470              JUNCTION     0.01     0.02  5149.22     0  16:08        0.02
  CE-0475              JUNCTION     0.02     0.02  5149.82     0  15:50        0.02
  CE-0480              JUNCTION     0.01     0.02  5150.42     0  17:00        0.02
  CE-0485              JUNCTION     0.15     0.16  5150.20     0  16:59        0.16
  CE-0490              JUNCTION     0.03     0.04  5151.14     0  16:56        0.04
  CE-0495              JUNCTION     0.07     0.09  5151.89     0  16:59        0.09
  CE-0500              JUNCTION     0.05     0.08  5152.58     0  16:59        0.08
  CE-0505              JUNCTION     0.05     0.07  5153.37     0  16:58        0.07
  CE-0510              JUNCTION     0.04     0.05  5154.06     0  16:52        0.05
  CE-0515              JUNCTION     0.04     0.05  5154.70     0  17:00        0.05
  CE-0520              JUNCTION     0.02     0.03  5155.32     0  16:53        0.03
  CE-0525              JUNCTION     0.02     0.02  5156.48     0  16:13        0.02
  CE-0530              JUNCTION     0.02     0.03  5109.73     0  17:00        0.03
  CE-0535              JUNCTION     0.02     0.02  5110.42     0  16:59        0.02
  CE-0540              JUNCTION     0.01     0.02  5111.32     0  15:41        0.02
  CE-0545              JUNCTION     0.01     0.01  5112.01     0  15:33        0.01
  CE-0550              JUNCTION     0.01     0.02  5112.13     0  15:30        0.02
  CE-0555              JUNCTION     0.01     0.01  5112.81     0  15:27        0.01
  CE-0560              JUNCTION     0.01     0.01  5113.71     0  15:10        0.01
  CE-0565              JUNCTION     0.00     0.00  5112.66     0  00:00        0.00
  CE-0570              JUNCTION     0.17     0.22  5100.92     0  08:17        0.22
  CE-0575              JUNCTION     0.01     0.01  5103.71     0  15:46        0.01
  CE-0580              JUNCTION     0.01     0.02  5104.12     0  15:28        0.02
  CE-0585              JUNCTION     0.00     0.00  5104.40     0  00:00        0.00
  CE-0590              JUNCTION     0.00     0.00  5104.80     0  00:00        0.00
  CE-0595              JUNCTION     0.00     0.00  5108.20     0  00:00        0.00
  CE-0600              JUNCTION     0.17     0.22  5103.12     0  08:16        0.22
  CE-0605              JUNCTION     0.09     0.13  5106.43     0  08:12        0.13
  CE-0610              JUNCTION     0.28     0.41  5107.21     0  08:11        0.41
  CE-0615              JUNCTION     0.25     0.36  5107.56     0  08:10        0.36
  CE-0620              JUNCTION     0.25     0.36  5107.96     0  08:09        0.36
  CE-0625              JUNCTION     0.23     0.34  5108.44     0  08:08        0.34
  CE-0630              JUNCTION     0.25     0.37  5108.87     0  08:06        0.37
  CE-0635              JUNCTION     0.21     0.31  5109.41     0  08:05        0.31
  CE-0640              JUNCTION     0.20     0.29  5110.19     0  08:04        0.29
  CE-0645              JUNCTION     0.35     0.49  5110.44     0  08:03        0.49
  CE-0650              JUNCTION     0.31     0.45  5110.45     0  08:03        0.45
  CE-0655              JUNCTION     0.25     0.37  5110.57     0  08:02        0.37
  CE-0660              JUNCTION     0.24     0.35  5110.65     0  08:01        0.35
  CE-0665              JUNCTION     0.10     0.13  5110.73     0  08:08        0.13
  CE-0670              JUNCTION     0.10     0.13  5111.03     0  08:06        0.13
  CE-0675              JUNCTION     0.08     0.10  5111.10     0  08:05        0.10
  CE-0680              JUNCTION     0.04     0.07  5111.87     0  08:01        0.07
  CE-0685              JUNCTION     0.04     0.06  5112.76     0  08:00        0.06
  CE-0690              JUNCTION     0.03     0.05  5114.55     0  08:00        0.05
  CE-0695              JUNCTION     0.03     0.04  5120.14     0  07:40        0.04
  CE-0700              JUNCTION     0.02     0.03  5128.53     0  07:38        0.03
  CE-0705              JUNCTION     0.02     0.03  5135.73     0  07:35        0.03
  CE-0710              JUNCTION     0.02     0.03  5137.93     0  07:29        0.03
  CE-0715              JUNCTION     0.01     0.02  5140.12     0  07:50        0.02
  CE-0720              JUNCTION     0.08     0.10  5112.40     0  21:00        0.10
  CE-0725              JUNCTION     0.08     0.10  5113.70     0  08:05        0.10
  CE-0730              JUNCTION     0.06     0.08  5116.08     0  08:03        0.08
  CE-0735              JUNCTION     0.07     0.11  5116.81     0  08:02        0.11
  CE-0740              JUNCTION     0.07     0.10  5117.00     0  08:02        0.10
  CE-0745              JUNCTION     0.01     0.01  5118.34     0  08:00        0.01
  CE-0750              JUNCTION     0.08     0.11  5117.41     0  08:01        0.11
  CE-0755              JUNCTION     0.06     0.10  5118.10     0  08:00        0.10
  CE-0760              JUNCTION     0.04     0.06  5123.46     0  07:51        0.06
  CE-0765              JUNCTION     0.04     0.06  5128.86     0  07:56        0.06
  CE-0770              JUNCTION     0.04     0.06  5134.16     0  07:52        0.06
  CE-0775              JUNCTION     0.03     0.05  5139.55     0  07:52        0.05
  CE-0780              JUNCTION     0.03     0.05  5143.85     0  07:50        0.05
  CE-0785              JUNCTION     0.03     0.04  5148.24     0  07:50        0.04
  CE-0790              JUNCTION     0.03     0.04  5152.54     0  07:58        0.04
  CE-0795              JUNCTION     0.02     0.04  5155.34     0  07:56        0.04
  CE-0800              JUNCTION     0.02     0.03  5158.73     0  07:36        0.03
  CE-0805              JUNCTION     0.01     0.02  5164.02     0  07:40        0.02
  CE-0810              JUNCTION     0.01     0.01  5167.41     0  07:50        0.01
  CE-0815              JUNCTION     0.13     0.18  5114.88     0  08:02        0.18
  CE-0820              JUNCTION     0.12     0.17  5115.17     0  08:01        0.17
  CE-0825              JUNCTION     0.12     0.16  5116.36     0  08:01        0.16
  CE-0830              JUNCTION     0.12     0.16  5116.96     0  08:00        0.16
  CE-0835              JUNCTION     0.06     0.09  5119.39     0  08:00        0.09
  CE-0840              JUNCTION     0.06     0.09  5121.89     0  08:00        0.09
  CE-0845              JUNCTION     0.05     0.08  5123.98     0  08:00        0.08
  CE-0850              JUNCTION     0.05     0.08  5126.28     0  08:00        0.08
  CE-0855              JUNCTION     0.04     0.06  5133.46     0  08:00        0.06
  CE-0860              JUNCTION     0.04     0.06  5140.66     0  08:00        0.06
  CE-0865              JUNCTION     0.04     0.06  5147.76     0  08:00        0.06
  CE-0870              JUNCTION     0.03     0.05  5154.75     0  08:00        0.05
  CE-0875              JUNCTION     0.04     0.05  5157.55     0  08:00        0.05
  CE-0880              JUNCTION     0.03     0.04  5163.44     0  08:00        0.04
  CE-0885              JUNCTION     0.02     0.04  5169.44     0  08:00        0.04
  CE-0890              JUNCTION     0.02     0.03  5175.33     0  08:00        0.03
  CE-0895              JUNCTION     0.03     0.05  5175.65     0  08:00        0.05
  CE-0900              JUNCTION     0.03     0.04  5176.14     0  08:00        0.04
  CE-0905              JUNCTION     0.02     0.04  5176.34     0  08:00        0.04
  CE-0910              JUNCTION     0.01     0.01  5181.81     0  07:39        0.01
  CE-0915              JUNCTION     0.01     0.01  5179.11     0  07:44        0.01
  CE-0920              JUNCTION     0.03     0.04  5117.64     0  15:57        0.04
  CE-0925              JUNCTION     0.09     0.11  5117.61     0  20:48        0.11
  CE-0930              JUNCTION     0.09     0.11  5118.21     0  20:46        0.11
  CE-0935              JUNCTION     0.07     0.10  5118.90     0  08:04        0.10
  CE-0940              JUNCTION     0.06     0.08  5120.18     0  08:02        0.08
  CE-0945              JUNCTION     0.07     0.10  5121.10     0  08:00        0.10
  CE-0950              JUNCTION     0.04     0.06  5126.16     0  08:00        0.06
  CE-0955              JUNCTION     0.04     0.06  5131.06     0  08:00        0.06
  CE-0960              JUNCTION     0.03     0.05  5138.85     0  08:00        0.05
  CE-0965              JUNCTION     0.03     0.05  5146.65     0  07:57        0.05
  CE-0970              JUNCTION     0.03     0.05  5154.45     0  07:58        0.05
  CE-0975              JUNCTION     0.03     0.04  5160.14     0  07:59        0.04
  CE-0980              JUNCTION     0.03     0.04  5167.14     0  08:00        0.04
  CE-0985              JUNCTION     0.03     0.04  5172.04     0  07:59        0.04
  CE-0990              JUNCTION     0.03     0.05  5172.85     0  07:50        0.05
  CE-0995              JUNCTION     0.02     0.03  5173.53     0  07:44        0.03
  CE-1000              JUNCTION     0.03     0.03  5132.13     0  17:03        0.03
  CE-1005              JUNCTION     0.02     0.03  5132.93     0  16:31        0.03
  CE-1010              JUNCTION     0.01     0.02  5136.49     0  16:09        0.02
  CE-1015              JUNCTION     0.04     0.05  5119.05     0  16:59        0.05
  CE-1020              JUNCTION     0.03     0.05  5119.55     0  16:59        0.05
  CE-1025              JUNCTION     0.03     0.04  5120.24     0  16:52        0.04
  CE-1030              JUNCTION     0.02     0.02  5121.02     0  16:52        0.02
  CE-1035              JUNCTION     0.01     0.02  5121.72     0  16:27        0.02
  CE-1040              JUNCTION     0.00     0.00  5122.13     0  00:00        0.00
  CE-1045              JUNCTION     0.12     0.18  5115.98     0  08:00        0.18
  CE-1050              JUNCTION     0.04     0.06  5117.56     0  08:00        0.06
  CE-1055              JUNCTION     0.04     0.06  5120.66     0  08:00        0.06
  CE-1060              JUNCTION     0.03     0.04  5128.54     0  08:00        0.04
  CE-1065              JUNCTION     0.03     0.05  5131.45     0  08:00        0.05
  CE-1070              JUNCTION     0.03     0.04  5134.14     0  08:00        0.04
  CE-1075              JUNCTION     0.02     0.04  5137.14     0  08:00        0.04
  CE-1080              JUNCTION     0.02     0.03  5138.43     0  08:00        0.03
  CE-1085              JUNCTION     0.01     0.02  5139.42     0  07:59        0.02
  CE-1090              JUNCTION     0.15     0.23  5116.93     0  08:02        0.23
  CE-1095              JUNCTION     0.19     0.28  5118.48     0  08:01        0.28
  CE-1100              JUNCTION     0.12     0.18  5122.48     0  08:02        0.18
  CE-1105              JUNCTION     0.15     0.22  5124.32     0  08:01        0.22
  CE-1110              JUNCTION     0.10     0.15  5128.85     0  08:00        0.15
  CE-1115              JUNCTION     0.10     0.15  5133.05     0  08:00        0.15
  CE-1120              JUNCTION     0.07     0.11  5141.11     0  08:00        0.11
  CE-1125              JUNCTION     0.07     0.11  5143.11     0  08:00        0.11
  CE-1130              JUNCTION     0.05     0.08  5150.68     0  08:00        0.08
  CE-1135              JUNCTION     0.07     0.11  5153.11     0  08:00        0.11
  CE-1140              JUNCTION     0.05     0.07  5165.57     0  08:00        0.07
  CE-1145              JUNCTION     0.05     0.08  5171.78     0  08:00        0.08
  CE-1150              JUNCTION     0.04     0.07  5180.97     0  08:00        0.07
  CE-1155              JUNCTION     0.05     0.08  5186.08     0  08:00        0.08
  CE-1160              JUNCTION     0.05     0.07  5193.77     0  08:04        0.07
  CE-1165              JUNCTION     0.07     0.12  5195.12     0  08:00        0.12
  CE-1170              JUNCTION     0.07     0.11  5196.31     0  08:02        0.11
  CE-1175              JUNCTION     0.05     0.07  5202.17     0  08:01        0.07
  CE-1180              JUNCTION     0.05     0.07  5208.47     0  08:01        0.07
  CE-1185              JUNCTION     0.05     0.08  5214.68     0  08:00        0.08
  CE-1190              JUNCTION     0.05     0.07  5220.97     0  08:00        0.07
  CE-1195              JUNCTION     0.05     0.08  5225.38     0  08:00        0.08
  CE-1200              JUNCTION     0.05     0.08  5229.88     0  08:00        0.08
  CE-1205              JUNCTION     0.05     0.08  5234.28     0  08:00        0.08
  CE-1210              JUNCTION     0.05     0.08  5239.28     0  08:00        0.08
  CE-1215              JUNCTION     0.03     0.03  5242.13     0  08:00        0.03
  CE-1220              JUNCTION     0.03     0.04  5243.64     0  15:10        0.04
  CE-1225              JUNCTION     0.06     0.08  5243.73     0  08:00        0.08
  CE-1230              JUNCTION     0.01     0.01  5267.91     0  07:35        0.01
  CE-1235              JUNCTION     0.02     0.02  5246.92     0  08:00        0.02
  CE-1240              JUNCTION     0.01     0.02  5249.82     0  08:00        0.02
  CE-1245              JUNCTION     0.06     0.09  5241.09     0  08:00        0.09
  CE-1250              JUNCTION     0.04     0.06  5250.96     0  08:00        0.06
  CE-1255              JUNCTION     0.01     0.02  5256.12     0  07:03        0.02
  CE-1260              JUNCTION     0.06     0.09  5252.59     0  08:00        0.09
  CE-1265              JUNCTION     0.02     0.02  5256.42     0  08:00        0.02
  CE-1270              JUNCTION     0.03     0.05  5260.65     0  08:00        0.05
  CE-1275              JUNCTION     0.05     0.08  5260.72     0  08:00        0.08
  CE-1280              JUNCTION     0.01     0.02  5281.02     0  07:19        0.02
  CE-1285              JUNCTION     0.01     0.02  5283.62     0  08:00        0.02
  CE-1290              JUNCTION     0.02     0.03  5287.03     0  08:00        0.03
  CE-1295              JUNCTION     0.01     0.02  5296.42     0  08:00        0.02
  CE-1300              JUNCTION     0.02     0.02  5297.02     0  08:00        0.02
  CE-1305              JUNCTION     0.02     0.03  5262.93     0  08:00        0.03
  CE-1310              JUNCTION     0.02     0.02  5269.52     0  08:00        0.02
  CE-1315              JUNCTION     0.01     0.01  5271.61     0  08:00        0.01
  CE-1320              JUNCTION     0.01     0.02  5271.00     0  16:58        0.02
  CE-1325              JUNCTION     0.01     0.02  5264.62     0  07:51        0.02
  CE-1330              JUNCTION     0.03     0.04  5235.64     0  08:00        0.04
  CE-1335              JUNCTION     0.01     0.02  5240.12     0  07:44        0.02
  CE-1340              JUNCTION     0.03     0.05  5143.55     0  08:00        0.05
  CE-1345              JUNCTION     0.02     0.03  5158.53     0  08:00        0.03
  CE-1350              JUNCTION     0.01     0.02  5166.22     0  08:00        0.02
  CE-1355              JUNCTION     0.01     0.01  5171.71     0  07:50        0.01
  CE-1360              JUNCTION     0.14     0.22  5134.32     0  07:55        0.22
  CE-1365              JUNCTION     0.13     0.20  5134.60     0  08:00        0.20
  CE-1370              JUNCTION     0.12     0.19  5135.59     0  08:00        0.19
  CE-1375              JUNCTION     0.14     0.22  5136.52     0  08:00        0.22
  CE-1380              JUNCTION     0.13     0.20  5137.50     0  08:00        0.20
  CE-1385              JUNCTION     0.11     0.17  5137.77     0  08:00        0.17
  CE-1390              JUNCTION     0.03     0.05  5138.25     0  08:00        0.05
  CE-1395              JUNCTION     0.02     0.03  5144.03     0  07:44        0.03
  CE-1400              JUNCTION     0.01     0.02  5149.92     0  07:17        0.02
  CE-1405              JUNCTION     0.12     0.19  5138.69     0  08:00        0.19
  CE-1410              JUNCTION     0.12     0.18  5139.68     0  08:00        0.18
  CE-1415              JUNCTION     0.09     0.15  5140.72     0  08:00        0.15
  CE-1420              JUNCTION     0.07     0.11  5144.71     0  08:00        0.11
  CE-1425              JUNCTION     0.07     0.11  5148.71     0  08:00        0.11
  CE-1430              JUNCTION     0.07     0.11  5152.51     0  08:00        0.11
  CE-1435              JUNCTION     0.06     0.09  5158.39     0  08:00        0.09
  CE-1440              JUNCTION     0.07     0.11  5161.11     0  08:00        0.11
  CE-1445              JUNCTION     0.01     0.02  5164.52     0  07:40        0.02
  CE-1450              JUNCTION     0.06     0.09  5167.89     0  08:00        0.09
  CE-1455              JUNCTION     0.01     0.02  5168.38     0  07:59        0.02
  CE-1460              JUNCTION     0.00     0.00  5168.41     0  00:00        0.00
  CE-1465              JUNCTION     0.00     0.00  5168.66     0  00:00        0.00
  CE-1470              JUNCTION     0.06     0.09  5168.39     0  08:00        0.09
  CE-1475              JUNCTION     0.07     0.12  5169.82     0  08:00        0.12
  CE-1480              JUNCTION     0.06     0.09  5173.69     0  08:00        0.09
  CE-1485              JUNCTION     0.06     0.09  5180.49     0  08:00        0.09
  CE-1490              JUNCTION     0.04     0.06  5181.16     0  08:00        0.06
  CE-1495              JUNCTION     0.04     0.05  5181.85     0  08:00        0.05
  CE-1500              JUNCTION     0.03     0.05  5182.65     0  08:00        0.05
  CE-1505              JUNCTION     0.03     0.04  5183.44     0  08:00        0.04
  CE-1510              JUNCTION     0.01     0.02  5191.02     0  07:35        0.02
  CE-1515              JUNCTION     0.01     0.01  5206.21     0  07:50        0.01
  CE-1520              JUNCTION     0.01     0.01  5215.81     0  07:22        0.01
  CE-1525              JUNCTION     0.01     0.01  5244.21     0  07:02        0.01
  CE-1530              JUNCTION     0.07     0.10  5182.70     0  08:00        0.10
  CE-1535              JUNCTION     0.06     0.10  5184.60     0  08:00        0.10
  CE-1540              JUNCTION     0.03     0.04  5193.04     0  08:00        0.04
  CE-1545              JUNCTION     0.02     0.03  5196.53     0  07:58        0.03
  CE-1550              JUNCTION     0.02     0.03  5200.33     0  07:56        0.03
  CE-1555              JUNCTION     0.02     0.03  5204.13     0  07:49        0.03
  CE-1560              JUNCTION     0.01     0.02  5208.62     0  07:44        0.02
  CE-1565              JUNCTION     0.01     0.01  5230.51     0  07:44        0.01
  CE-1570              JUNCTION     0.07     0.10  5185.50     0  08:00        0.10
  CE-1575              JUNCTION     0.06     0.10  5186.40     0  08:00        0.10
  CE-1580              JUNCTION     0.04     0.06  5186.76     0  08:00        0.06
  CE-1585              JUNCTION     0.04     0.06  5187.06     0  07:10        0.06
  CE-1590              JUNCTION     0.02     0.03  5187.85     0  07:57        0.03
  CE-1595              JUNCTION     0.01     0.02  5198.22     0  08:00        0.02
  CE-1600              JUNCTION     0.01     0.02  5207.72     0  07:49        0.02
  CE-1605              JUNCTION     0.01     0.01  5217.71     0  07:42        0.01
  CE-1610              JUNCTION     0.04     0.06  5194.76     0  08:00        0.06
  CE-1615              JUNCTION     0.04     0.06  5198.06     0  08:00        0.06
  CE-1620              JUNCTION     0.04     0.05  5198.55     0  08:00        0.05
  CE-1625              JUNCTION     0.06     0.09  5205.59     0  08:00        0.09
  CE-1630              JUNCTION     0.03     0.04  5216.64     0  08:00        0.04
  CE-1635              JUNCTION     0.00     0.00  5217.31     0  00:00        0.00
  CE-1640              JUNCTION     0.00     0.00  5217.76     0  00:00        0.00
  CE-1645              JUNCTION     0.03     0.04  5222.26     0  08:00        0.04
  CE-1650              JUNCTION     0.02     0.03  5228.33     0  08:00        0.03
  CE-1655              JUNCTION     0.03     0.05  5230.25     0  08:00        0.05
  CE-1660              JUNCTION     0.02     0.03  5235.53     0  08:00        0.03
  CE-1665              JUNCTION     0.01     0.02  5246.82     0  08:00        0.02
  CE-1670              JUNCTION     0.01     0.01  5265.41     0  07:35        0.01
  CE-1675              JUNCTION     0.00     0.00  5222.81     0  00:00        0.00
  CE-1680              JUNCTION     0.00     0.00  5208.22     0  00:00        0.00
  CE-1685              JUNCTION     0.02     0.03  5205.43     0  08:00        0.03
  CE-1690              JUNCTION     0.03     0.04  5201.04     0  08:00        0.04
  CE-1695              JUNCTION     0.03     0.04  5207.04     0  08:00        0.04
  CE-1700              JUNCTION     0.04     0.06  5208.46     0  08:00        0.06
  CE-1705              JUNCTION     0.03     0.04  5211.04     0  08:00        0.04
  CE-1710              JUNCTION     0.02     0.03  5220.73     0  07:47        0.03
  CE-1715              JUNCTION     0.01     0.02  5236.52     0  07:52        0.02
  CE-1720              JUNCTION     0.01     0.02  5249.32     0  07:05        0.02
  CE-1725              JUNCTION     0.01     0.01  5195.42     0  08:00        0.01
  CE-1730              JUNCTION     0.08     0.13  5140.43     0  08:00        0.13
  CE-1735              JUNCTION     0.11     0.17  5140.77     0  08:00        0.17
  CE-1740              JUNCTION     0.04     0.06  5148.96     0  08:00        0.06
  CE-1745              JUNCTION     0.01     0.02  5160.32     0  07:56        0.02
  CE-1750              JUNCTION     0.05     0.08  5151.08     0  08:00        0.08
  CE-1755              JUNCTION     0.04     0.06  5155.06     0  08:00        0.06
  CE-1760              JUNCTION     0.02     0.03  5169.33     0  08:00        0.03
  CE-1765              JUNCTION     0.02     0.03  5170.51     0  08:00        0.03
  CE-1770              JUNCTION     0.00     0.00  5171.08     0  00:00        0.00
  CE-1775              JUNCTION     0.00     0.00  5171.27     0  00:00        0.00
  CE-1780              JUNCTION     0.01     0.02  5176.02     0  08:00        0.02
  CE-1785              JUNCTION     0.01     0.01  5181.81     0  08:00        0.01
  CE-1790              JUNCTION     0.00     0.01  5184.01     0  08:00        0.01
  CE-1800              JUNCTION     0.01     0.02  5181.82     0  07:55        0.02
  CE-1805              JUNCTION     0.03     0.04  5160.94     0  08:00        0.04
  CE-1810              JUNCTION     0.02     0.04  5167.34     0  08:00        0.04
  CE-1815              JUNCTION     0.02     0.03  5169.93     0  08:00        0.03
  CE-1820              JUNCTION     0.01     0.01  5172.11     0  08:00        0.01
  CE-1825              JUNCTION     0.01     0.02  5172.62     0  08:00        0.02
  CE-1830              JUNCTION     0.00     0.01  5185.11     0  08:00        0.01
  CE-1835              JUNCTION     0.00     0.01  5200.71     0  07:59        0.01
  CE-1840              JUNCTION     0.00     0.00  5214.40     0  00:00        0.00
  CE-1845              JUNCTION     0.00     0.00  5220.60     0  00:00        0.00
  CE-1850              JUNCTION     0.00     0.00  5222.60     0  07:49        0.00
  CE-1855              JUNCTION     0.03     0.05  5142.45     0  07:57        0.05
  CE-1860              JUNCTION     0.03     0.04  5144.44     0  07:53        0.04
  CE-1865              JUNCTION     0.02     0.04  5147.14     0  07:51        0.04
  CE-1870              JUNCTION     0.02     0.03  5149.23     0  07:51        0.03
  CE-1875              JUNCTION     0.02     0.03  5153.93     0  07:52        0.03
  CE-1880              JUNCTION     0.01     0.02  5158.72     0  07:52        0.02
  CE-1885              JUNCTION     0.01     0.02  5163.12     0  07:44        0.02
  CE-1890              JUNCTION     0.01     0.01  5166.51     0  07:44        0.01
  CE-1895              JUNCTION     0.04     0.06  5141.56     0  08:00        0.06
  CE-1900              JUNCTION     0.02     0.03  5142.43     0  08:00        0.03
  CE-1905              JUNCTION     0.01     0.01  5145.41     0  07:36        0.01
  CE-1910              JUNCTION     0.02     0.03  5140.63     0  08:00        0.03
  CE-1915              JUNCTION     0.02     0.03  5143.43     0  08:00        0.03
  CE-1920              JUNCTION     0.01     0.01  5146.21     0  08:00        0.01
  CE-1925              JUNCTION     0.01     0.02  5142.42     0  08:00        0.02
  CE-1930              JUNCTION     0.06     0.08  5129.38     0  08:08        0.08
  CE-1935              JUNCTION     0.06     0.08  5134.58     0  08:08        0.08
  CE-1940              JUNCTION     0.06     0.08  5140.38     0  08:07        0.08
  CE-1945              JUNCTION     0.06     0.08  5146.08     0  08:07        0.08
  CE-1950              JUNCTION     0.07     0.09  5148.99     0  08:06        0.09
  CE-1955              JUNCTION     0.07     0.09  5151.89     0  08:05        0.09
  CE-1960              JUNCTION     0.06     0.09  5155.09     0  08:05        0.09
  CE-1965              JUNCTION     0.02     0.02  5161.02     0  16:37        0.02
  CE-1970              JUNCTION     0.01     0.02  5166.02     0  16:17        0.02
  CE-1975              JUNCTION     0.01     0.02  5170.02     0  15:57        0.02
  CE-1980              JUNCTION     0.21     0.34  5173.24     0  09:09        0.34
  CE-1985              JUNCTION     0.23     0.36  5173.56     0  09:08        0.36
  CE-1990              JUNCTION     0.18     0.29  5173.69     0  09:07        0.29
  CE-1995              JUNCTION     0.05     0.07  5177.37     0  08:00        0.07
  CE-2000              JUNCTION     0.05     0.08  5180.28     0  08:00        0.08
  CE-2005              JUNCTION     0.05     0.07  5184.37     0  08:00        0.07
  CE-2010              JUNCTION     0.05     0.07  5187.97     0  08:00        0.07
  CE-2015              JUNCTION     0.04     0.06  5193.56     0  08:00        0.06
  CE-2020              JUNCTION     0.05     0.08  5194.18     0  08:00        0.08
  CE-2025              JUNCTION     0.03     0.05  5194.95     0  07:54        0.05
  CE-2030              JUNCTION     0.02     0.03  5201.20     0  07:56        0.03
  CE-2035              JUNCTION     0.02     0.03  5223.53     0  07:59        0.03
  CE-2040              JUNCTION     0.02     0.03  5232.03     0  07:56        0.03
  CE-2045              JUNCTION     0.02     0.03  5237.03     0  07:54        0.03
  CE-2050              JUNCTION     0.01     0.02  5242.42     0  07:53        0.02
  CE-2055              JUNCTION     0.01     0.01  5251.01     0  07:58        0.01
  CE-2060              JUNCTION     0.00     0.01  5227.81     0  07:37        0.01
  CE-2065              JUNCTION     0.03     0.04  5202.54     0  08:00        0.04
  CE-2070              JUNCTION     0.03     0.04  5209.84     0  08:00        0.04
  CE-2075              JUNCTION     0.03     0.04  5217.14     0  08:00        0.04
  CE-2080              JUNCTION     0.03     0.04  5227.24     0  08:00        0.04
  CE-2085              JUNCTION     0.03     0.04  5231.44     0  08:00        0.04
  CE-2090              JUNCTION     0.14     0.23  5175.13     0  09:08        0.23
  CE-2095              JUNCTION     0.15     0.25  5176.35     0  09:08        0.25
  CE-2100              JUNCTION     0.32     0.50  5176.70     0  09:07        0.50
  CE-2105              JUNCTION     0.22     0.37  5177.07     0  09:04        0.37
  CE-2110              JUNCTION     0.23     0.38  5177.48     0  09:01        0.38
  CE-2115              JUNCTION     0.25     0.42  5177.72     0  09:00        0.42
  CE-2120              JUNCTION     0.24     0.41  5178.01     0  08:58        0.41
  CE-2125              JUNCTION     0.28     0.46  5178.26     0  08:54        0.46
  CE-2130              JUNCTION     0.22     0.37  5178.67     0  08:52        0.37
  CE-2135              JUNCTION     0.25     0.41  5178.81     0  08:50        0.41
  CE-2140              JUNCTION     0.29     0.46  5179.06     0  08:48        0.46
  CE-2145              JUNCTION     0.14     0.22  5180.52     0  08:46        0.22
  CE-2150              JUNCTION     0.10     0.16  5196.56     0  08:45        0.16
  CE-2155              JUNCTION     0.20     0.32  5197.92     0  08:44        0.32
  CE-2160              JUNCTION     0.11     0.18  5208.38     0  08:43        0.18
  CE-2165              JUNCTION     0.11     0.18  5217.18     0  08:42        0.17
  CE-2170              JUNCTION     0.25     0.42  5218.02     0  08:41        0.42
  CE-2175              JUNCTION     0.22     0.35  5218.65     0  08:40        0.35
  CE-2180              JUNCTION     0.23     0.37  5219.27     0  08:38        0.37
  CE-2185              JUNCTION     0.22     0.36  5219.86     0  08:37        0.36
  CE-2190              JUNCTION     0.18     0.30  5221.00     0  08:36        0.30
  CE-2195              JUNCTION     0.26     0.41  5221.51     0  08:35        0.41
  CE-2200              JUNCTION     0.25     0.40  5222.00     0  08:33        0.40
  CE-2205              JUNCTION     0.26     0.42  5222.42     0  08:30        0.42
  CE-2210              JUNCTION     0.24     0.40  5222.80     0  08:29        0.40
  CE-2215              JUNCTION     0.24     0.39  5223.19     0  08:28        0.39
  CE-2220              JUNCTION     0.25     0.40  5223.32     0  08:27        0.40
  CE-2225              JUNCTION     0.01     0.01  5227.01     0  15:11        0.01
  CE-2230              JUNCTION     0.01     0.02  5228.62     0  15:07        0.02
  CE-2235              JUNCTION     0.22     0.35  5223.45     0  08:26        0.35
  CE-2240              JUNCTION     0.27     0.42  5227.02     0  08:26        0.42
  CE-2245              JUNCTION     0.12     0.19  5235.29     0  08:24        0.19
  CE-2250              JUNCTION     0.11     0.18  5248.58     0  08:24        0.18
  CE-2255              JUNCTION     0.27     0.43  5249.43     0  08:23        0.43
  CE-2260              JUNCTION     0.25     0.41  5249.91     0  08:21        0.41
  CE-2265              JUNCTION     0.25     0.40  5250.20     0  08:19        0.40
  CE-2270              JUNCTION     0.23     0.38  5250.46     0  08:18        0.38
  CE-2275              JUNCTION     0.33     0.51  5250.62     0  08:17        0.51
  CE-2280              JUNCTION     0.23     0.37  5250.95     0  08:16        0.37
  CE-2285              JUNCTION     0.26     0.42  5251.42     0  08:14        0.42
  CE-2290              JUNCTION     0.25     0.41  5251.56     0  08:13        0.41
  CE-2295              JUNCTION     0.25     0.40  5251.90     0  08:12        0.40
  CE-2300              JUNCTION     0.25     0.39  5252.49     0  08:11        0.39
  CE-2305              JUNCTION     0.14     0.22  5253.32     0  08:01        0.22
  CE-2310              JUNCTION     0.16     0.26  5253.96     0  08:00        0.26
  CE-2315              JUNCTION     0.00     0.00  5255.30     0  00:00        0.00
  CE-2320              JUNCTION     0.15     0.24  5254.54     0  08:00        0.24
  CE-2325              JUNCTION     0.02     0.04  5254.94     0  08:00        0.04
  CE-2330              JUNCTION     0.02     0.03  5255.13     0  08:00        0.03
  CE-2335              JUNCTION     0.02     0.04  5255.34     0  08:00        0.04
  CE-2340              JUNCTION     0.02     0.03  5256.03     0  08:00        0.03
  CE-2345              JUNCTION     0.00     0.00  5256.50     0  00:00        0.00
  CE-2350              JUNCTION     0.00     0.00  5257.60     0  00:00        0.00
  CE-2355              JUNCTION     0.00     0.00  5258.30     0  00:00        0.00
  CE-2360              JUNCTION     0.00     0.00  5258.60     0  00:00        0.00
  CE-2365              JUNCTION     0.09     0.14  5265.53     0  08:00        0.14
  CE-2370              JUNCTION     0.09     0.14  5267.74     0  08:00        0.14
  CE-2375              JUNCTION     0.09     0.13  5275.73     0  08:00        0.13
  CE-2380              JUNCTION     0.10     0.16  5282.36     0  08:00        0.16
  CE-2385              JUNCTION     0.08     0.13  5292.13     0  08:00        0.13
  CE-2390              JUNCTION     0.08     0.13  5305.13     0  08:00        0.13
  CE-2395              JUNCTION     0.09     0.14  5311.64     0  08:00        0.14
  CE-2400              JUNCTION     0.02     0.03  5314.93     0  08:00        0.03
  CE-2405              JUNCTION     0.02     0.02  5315.04     0  08:00        0.02
  CE-2410              JUNCTION     0.02     0.02  5317.52     0  08:00        0.02
  CE-2415              JUNCTION     0.01     0.02  5321.12     0  08:00        0.02
  CE-2420              JUNCTION     0.01     0.02  5321.52     0  07:41        0.02
  CE-2425              JUNCTION     0.00     0.00  5323.90     0  08:00        0.00
  CE-2430              JUNCTION     0.02     0.03  5317.56     0  08:00        0.03
  CE-2435              JUNCTION     0.02     0.03  5318.72     0  07:52        0.03
  CE-2440              JUNCTION     0.02     0.03  5321.32     0  07:53        0.03
  CE-2445              JUNCTION     0.02     0.02  5324.44     0  07:55        0.02
  CE-2450              JUNCTION     0.01     0.02  5328.11     0  08:00        0.02
  CE-2455              JUNCTION     0.01     0.02  5329.47     0  07:59        0.02
  CE-2460              JUNCTION     0.01     0.01  5331.21     0  07:23        0.01
  CE-2465              JUNCTION     0.14     0.22  5313.92     0  08:00        0.22
  CE-2470              JUNCTION     0.13     0.20  5315.90     0  08:00        0.20
  CE-2475              JUNCTION     0.13     0.20  5317.87     0  08:00        0.20
  CE-2480              JUNCTION     0.03     0.05  5323.17     0  08:00        0.05
  CE-2485              JUNCTION     0.03     0.04  5328.59     0  08:00        0.04
  CE-2490              JUNCTION     0.03     0.04  5334.04     0  08:00        0.04
  CE-2495              JUNCTION     0.04     0.06  5335.06     0  08:00        0.06
  CE-2500              JUNCTION     0.03     0.05  5335.55     0  08:00        0.05
  CE-2505              JUNCTION     0.03     0.05  5337.05     0  08:00        0.05
  CE-2510              JUNCTION     0.03     0.05  5337.45     0  07:23        0.05
  CE-2515              JUNCTION     0.03     0.04  5337.94     0  08:00        0.04
  CE-2520              JUNCTION     0.02     0.02  5341.12     0  08:00        0.02
  CE-2525              JUNCTION     0.01     0.01  5357.01     0  07:50        0.01
  CE-2530              JUNCTION     0.12     0.19  5318.79     0  08:00        0.19
  CE-2535              JUNCTION     0.12     0.19  5320.19     0  08:00        0.19
  CE-2540              JUNCTION     0.02     0.03  5328.03     0  07:50        0.03
  CE-2545              JUNCTION     0.02     0.04  5330.44     0  07:50        0.04
  CE-2550              JUNCTION     0.02     0.02  5337.83     0  08:00        0.02
  CE-2555              JUNCTION     0.01     0.02  5342.91     0  07:40        0.02
  CE-2560              JUNCTION     0.08     0.12  5350.32     0  07:53        0.12
  CE-2565              JUNCTION     0.08     0.12  5356.72     0  07:52        0.12
  CE-2570              JUNCTION     0.02     0.03  5358.63     0  08:00        0.03
  CE-2575              JUNCTION     0.11     0.18  5358.25     0  07:50        0.18
  CE-2580              JUNCTION     0.05     0.08  5361.15     0  07:48        0.08
  CE-2585              JUNCTION     0.07     0.11  5361.31     0  07:39        0.11
  CE-2590              JUNCTION     0.04     0.06  5362.16     0  08:00        0.06
  CE-2595              JUNCTION     0.02     0.03  5376.63     0  07:59        0.03
  CE-2600              JUNCTION     0.02     0.03  5387.33     0  07:58        0.03
  CE-2605              JUNCTION     0.01     0.02  5396.62     0  08:00        0.02
  CE-2610              JUNCTION     0.00     0.00  5400.00     0  08:00        0.00
  CE-2615              JUNCTION     0.03     0.05  5371.05     0  07:48        0.05
  CE-2620              JUNCTION     0.01     0.02  5385.68     0  08:00        0.02
  CE-2625              JUNCTION     0.01     0.02  5396.02     0  07:26        0.02
  CE-2630              JUNCTION     0.04     0.07  5373.93     0  07:46        0.07
  CE-2635              JUNCTION     0.04     0.07  5376.20     0  07:44        0.07
  CE-2640              JUNCTION     0.04     0.06  5378.27     0  07:43        0.06
  CE-2645              JUNCTION     0.04     0.05  5380.88     0  07:41        0.05
  CE-2650              JUNCTION     0.03     0.05  5383.20     0  07:39        0.05
  CE-2655              JUNCTION     0.03     0.04  5388.64     0  07:35        0.04
  CE-2660              JUNCTION     0.03     0.05  5390.65     0  07:23        0.05
  CE-2665              JUNCTION     0.01     0.01  5392.31     0  07:55        0.01
  CE-2670              JUNCTION     0.02     0.03  5393.37     0  07:52        0.03
  CE-2675              JUNCTION     0.01     0.01  5391.41     0  08:00        0.01
  CE-2680              JUNCTION     0.06     0.08  5394.08     0  07:51        0.08
  CE-2685              JUNCTION     0.06     0.09  5396.54     0  07:50        0.09
  CE-2690              JUNCTION     0.06     0.09  5400.42     0  08:00        0.09
  CE-2695              JUNCTION     0.06     0.09  5406.26     0  08:00        0.09
  CE-2700              JUNCTION     0.06     0.09  5413.11     0  07:50        0.09
  CE-2705              JUNCTION     0.04     0.06  5417.07     0  07:52        0.06
  CE-2710              JUNCTION     0.03     0.05  5424.02     0  07:52        0.05
  CE-2715              JUNCTION     0.01     0.02  5431.02     0  07:38        0.02
  CE-2720              JUNCTION     0.08     0.12  5360.22     0  07:59        0.12
  CE-2725              JUNCTION     0.09     0.14  5361.00     0  08:00        0.14
  CE-2730              JUNCTION     0.10     0.15  5361.06     0  07:59        0.15
  CE-2735              JUNCTION     0.07     0.11  5364.11     0  07:58        0.11
  CE-2740              JUNCTION     0.06     0.09  5371.09     0  07:58        0.09
  CE-2745              JUNCTION     0.07     0.10  5376.10     0  08:00        0.10
  CE-2750              JUNCTION     0.06     0.09  5383.09     0  07:54        0.09
  CE-2755              JUNCTION     0.06     0.09  5391.09     0  07:55        0.09
  CE-2760              JUNCTION     0.08     0.13  5325.83     0  07:58        0.13
  CE-2765              JUNCTION     0.08     0.12  5330.32     0  07:57        0.12
  CE-2770              JUNCTION     0.08     0.12  5337.43     0  07:54        0.12
  CE-2775              JUNCTION     0.08     0.12  5343.47     0  07:54        0.12
  CE-2780              JUNCTION     0.03     0.05  5333.35     0  08:00        0.05
  CE-2785              JUNCTION     0.04     0.06  5335.06     0  08:00        0.06
  CE-2790              JUNCTION     0.00     0.00  5339.00     0  07:44        0.00
  CE-2795              JUNCTION     0.02     0.04  5346.74     0  08:00        0.04
  CE-2800              JUNCTION     0.04     0.06  5347.86     0  08:00        0.06
  CE-2805              JUNCTION     0.03     0.05  5349.05     0  08:00        0.05
  CE-2810              JUNCTION     0.02     0.02  5354.32     0  07:25        0.02
  CE-2815              JUNCTION     0.02     0.03  5355.83     0  07:12        0.03
  CE-2820              JUNCTION     0.02     0.02  5350.42     0  08:00        0.02
  CE-2825              JUNCTION     0.14     0.22  5255.92     0  08:11        0.22
  CE-2830              JUNCTION     0.01     0.02  5290.10     0  15:43        0.02
  CE-2835              JUNCTION     0.01     0.01  5364.65     0  16:50        0.01
  CE-2840              JUNCTION     0.01     0.02  5375.22     0  15:58        0.02
  CE-2845              JUNCTION     0.03     0.04  5381.14     0  16:31        0.04
  CE-2850              JUNCTION     0.11     0.18  5267.78     0  08:09        0.18
  CE-2855              JUNCTION     0.16     0.26  5271.06     0  08:08        0.26
  CE-2860              JUNCTION     0.20     0.32  5272.32     0  08:06        0.32
  CE-2865              JUNCTION     0.01     0.02  5279.49     0  08:10        0.02
  CE-2870              JUNCTION     0.01     0.02  5295.07     0  08:09        0.02
  CE-2875              JUNCTION     0.02     0.04  5296.69     0  08:07        0.04
  CE-2880              JUNCTION     0.01     0.02  5337.83     0  08:05        0.02
  CE-2885              JUNCTION     0.01     0.02  5405.93     0  08:03        0.02
  CE-2890              JUNCTION     0.03     0.04  5407.07     0  08:02        0.04
  CE-2895              JUNCTION     0.02     0.04  5408.00     0  08:00        0.04
  CE-2900              JUNCTION     0.01     0.02  5408.85     0  08:03        0.02
  CE-2905              JUNCTION     0.01     0.02  5409.87     0  08:00        0.02
  CE-2910              JUNCTION     0.00     0.01  5420.51     0  08:00        0.01
  CE-2915              JUNCTION     0.00     0.01  5437.00     0  07:52        0.01
  CE-2920              JUNCTION     0.00     0.00  5446.50     0  00:00        0.00
  CE-2925              JUNCTION     0.00     0.00  5423.33     0  08:00        0.00
  CE-2930              JUNCTION     0.00     0.00  5431.66     0  08:00        0.00
  CE-2935              JUNCTION     0.00     0.00  5440.58     0  00:00        0.00
  CE-2940              JUNCTION     0.00     0.00  5441.26     0  00:00        0.00
  CE-2945              JUNCTION     0.00     0.00  5441.37     0  00:00        0.00
  CE-2950              JUNCTION     0.00     0.00  5410.60     0  00:00        0.00
  CE-2955              JUNCTION     0.00     0.00  5418.18     0  00:00        0.00
  CE-2960              JUNCTION     0.00     0.00  5428.86     0  00:00        0.00
  CE-2965              JUNCTION     0.00     0.00  5431.53     0  00:00        0.00
  CE-2970              JUNCTION     0.00     0.00  5431.59     0  00:00        0.00
  CE-2975              JUNCTION     0.01     0.01  5409.66     0  08:00        0.01
  CE-2980              JUNCTION     0.00     0.01  5416.13     0  08:00        0.01
  CE-2985              JUNCTION     0.00     0.01  5424.47     0  07:09        0.01
  CE-2990              JUNCTION     0.00     0.00  5426.18     0  00:00        0.00
  CE-2995              JUNCTION     0.00     0.00  5426.24     0  00:00        0.00
  CE-3000              JUNCTION     0.02     0.03  5419.90     0  08:00        0.03
  CE-3005              JUNCTION     0.02     0.02  5423.09     0  08:00        0.02
  CE-3010              JUNCTION     0.01     0.02  5428.54     0  07:59        0.02
[...]
  WC-0645>WC-0170         1.00   0.00  0.00  0.00  1.00  0.00  0.00  0.00  1.00  0.00
  WC-0650>WC-0645         1.00   0.00  0.00  0.00  0.00  1.00  0.00  0.00  0.06  0.00
  WC-0655>WC-0650         1.00   0.00  0.00  0.00  0.26  0.74  0.00  0.00  0.00  0.00
  WC-0660>WC-0080         1.00   0.00  0.12  0.00  0.88  0.00  0.00  0.00  0.10  0.00
  WC-0665>WC-0050         1.00   0.01  0.00  0.00  0.99  0.00  0.00  0.00  0.15  0.00
  WC-0670>WC-0665         1.00   0.00  0.00  0.00  1.00  0.00  0.00  0.00  0.93  0.00
  WC-0675>WC-0670         1.00   0.00  0.00  0.00  1.00  0.00  0.00  0.00  0.00  0.00
  WC-0680>WC-0675         1.00   0.00  0.00  0.00  0.97  0.03  0.00  0.00  0.98  0.00
  WC-0685>WC-0680         1.00   0.00  0.00  0.00  0.01  0.99  0.00  0.00  0.00  0.00
  WC-0690>WC-0685         1.00   0.00  0.00  0.00  0.00  0.99  0.00  0.00  0.99  0.00
  WC-0695>WC-0690         1.00   0.00  0.00  0.00  0.00  1.00  0.00  0.00  0.99  0.00
  WC-0700>WC-0695         1.00   0.00  0.00  0.00  0.00  1.00  0.00  0.00  0.99  0.00
  WC-0705>WC-0700         1.00   0.00  0.00  0.00  0.00  1.00  0.00  0.00  0.00  0.00
  WC-0710>WC-0705         1.00   0.00  0.00  0.00  0.00  1.00  0.00  0.00  0.00  0.00
  WC-0715>WC-0710         1.00   0.00  0.00  0.00  0.00  1.00  0.00  0.00  1.00  0.00
  WC-0720>WC-0715         1.00   0.00  0.00  0.00  0.00  1.00  0.00  0.00  1.00  0.00
  WC-0725>WC-0720         1.00   0.00  0.00  0.00  0.00  1.00  0.00  0.00  0.03  0.00
  WC-0730>WC-0675         1.00   0.00  0.01  0.00  0.99  0.00  0.00  0.00  0.90  0.00
  WC-0735>WC-0730         1.00   0.01  0.00  0.00  0.99  0.00  0.00  0.00  0.95  0.00
  WC-0740>WC-0735         1.00   0.01  0.00  0.00  0.99  0.00  0.00  0.00  0.96  0.00
  WC-0745>WC-0740         1.00   0.01  0.00  0.00  0.99  0.00  0.00  0.00  0.00  0.00
  WC-0750>WC-0745         1.00   0.01  0.00  0.00  0.99  0.00  0.00  0.00  0.78  0.00
  WW-0005>WWTP            2.31   0.01  0.01  0.00  0.06  0.93  0.00  0.00  0.14  0.00
  WW-0010>WW-0005         1.00   0.01  0.00  0.00  0.90  0.09  0.00  0.00  0.00  0.00
  WW-0015>WW-0010         1.00   0.01  0.00  0.00  0.99  0.00  0.00  0.00  0.00  0.00
  WW-0020>WW-0015         1.00   0.01  0.00  0.00  0.99  0.00  0.00  0.00  0.04  0.00
  WW-0025>WW-0020         1.00   0.01  0.00  0.00  0.99  0.00  0.00  0.00  0.99  0.00
  WW-0030>WW-0025         1.00   0.01  0.00  0.00  0.15  0.84  0.00  0.00  0.00  0.00
  WW-0035>WW-0030         1.40   0.01  0.00  0.00  0.00  0.00  0.00  0.99  0.00  0.00
  WW-0040>WW-0035         1.00   0.00  0.00  0.00  1.00  0.00  0.00  0.00  0.06  0.00
  WW-0045>WW-0040         1.41   0.00  0.00  0.00  1.00  0.00  0.00  0.00  0.02  0.00
  WW-0050>WW-0045         1.00   0.00  0.00  0.00  1.00  0.00  0.00  0.00  0.31  0.00
  WW-0055>WW-0050         1.00   0.00  0.00  0.00  1.00  0.00  0.00  0.00  0.05  0.00
  WW-0060>WW-0055         1.00   0.00  0.00  0.00  1.00  0.00  0.00  0.00  0.82  0.00
  WW-0065>WW-0060         1.00   0.00  0.00  0.00  1.00  0.00  0.00  0.00  0.97  0.00
  WW-0070>WW-0065         1.00   0.00  0.00  0.00  0.00  0.00  0.00  1.00  0.00  0.00
  WW-0080>WW-0065         1.00   0.00  0.00  0.00  1.00  0.00  0.00  0.00  0.98  0.00
  WW-0085>WW-0080         1.00   0.00  0.00  0.00  1.00  0.00  0.00  0.00  0.00  0.00
  WW-0090>WW-0085         1.00   0.00  0.01  0.00  0.99  0.00  0.00  0.00  0.23  0.00
  WW-0095>WW-0090         1.00   0.00  0.00  0.00  1.00  0.00  0.00  0.00  0.03  0.00
  WW-0100>WW-0095         1.00   0.00  0.01  0.00  0.99  0.00  0.00  0.00  0.30  0.00
  WW-0105>WW-0100         1.00   0.01  0.03  0.00  0.96  0.00  0.00  0.00  0.96  0.00
  WW-0110>WW-0105         1.00   0.03  0.00  0.00  0.95  0.02  0.00  0.00  0.54  0.00
  WW-0115>WW-0110         1.00   0.03  0.00  0.00  0.96  0.01  0.00  0.00  0.35  0.00
  WW-0120>WW-0030         1.00   0.01  0.00  0.00  0.99  0.00  0.00  0.00  0.39  0.00
  WW-0125>WW-0120         1.00   0.00  0.00  0.00  1.00  0.00  0.00  0.00  0.00  0.00
  WW-0130>WW-0125         1.00   0.00  0.00  0.00  1.00  0.00  0.00  0.00  0.09  0.00
  WW-0135>WW-0130         1.00   0.00  0.00  0.00  1.00  0.00  0.00  0.00  0.01  0.00
  WW-0140>WW-0135         1.00   0.00  0.00  0.00  1.00  0.00  0.00  0.00  0.10  0.00
  WW-0145>WW-0140         1.00   1.00  0.00  0.00  0.00  0.00  0.00  0.00  0.00  0.00
  WW-0150>WW-0140         1.00   0.00  0.00  0.00  1.00  0.00  0.00  0.00  0.76  0.00
  WW-0155>WW-0150         1.00   0.00  0.00  0.00  1.00  0.00  0.00  0.00  0.20  0.00
  WW-0160>WW-0155         1.00   0.00  0.01  0.00  0.99  0.00  0.00  0.00  0.15  0.00
  WW-0165>WWTP            4.87   0.01  0.00  0.00  0.03  0.97  0.00  0.00  0.93  0.00
  WW-0170>WW-0165         1.19   0.00  0.00  0.00  0.05  0.94  0.00  0.00  0.00  0.00
  WW-0175>WW-0170         1.00   0.00  0.00  0.00  1.00  0.00  0.00  0.00  0.03  0.00
  WW-0180>WW-0175         1.00   0.00  0.00  0.00  1.00  0.00  0.00  0.00  1.00  0.00
  WW-0185>WW-0180         4.02   0.00  0.00  0.00  0.02  0.98  0.00  0.00  0.00  0.00
  WW-0190>WW-0185         1.89   0.00  0.00  0.00  0.00  0.00  0.00  1.00  0.00  0.00
  WW-0195>WW-0190         1.00   0.00  0.00  0.00  1.00  0.00  0.00  0.00  0.00  0.00
  WW-0200>WW-0195         1.00   0.00  0.00  0.00  1.00  0.00  0.00  0.00  0.10  0.00
  WW-0205>WW-0200         1.00   0.00  0.00  0.00  1.00  0.00  0.00  0.00  0.93  0.00
  WW-0210>WW-0205         1.00   0.00  0.00  0.00  1.00  0.00  0.00  0.00  0.00  0.00
  WW-0215>WW-0210         1.00   0.00  0.00  0.00  1.00  0.00  0.00  0.00  0.29  0.00
  WW-0220>WW-0215         1.00   0.00  0.00  0.00  1.00  0.00  0.00  0.00  0.15  0.00
  WW-0225>WW-0220         1.00   0.00  0.00  0.00  1.00  0.00  0.00  0.00  0.02  0.00
  WW-0230>WW-0225         1.00   0.00  0.00  0.00  1.00  0.00  0.00  0.00  0.00  0.00
  WW-0235>WW-0230         1.00   0.00  0.00  0.00  1.00  0.00  0.00  0.00  0.84  0.00
  WW-0240>WW-0235         1.00   0.00  0.00  0.00  1.00  0.00  0.00  0.00  0.40  0.00
  WW-0245>WW-0240         1.00   0.00  0.00  0.00  1.00  0.00  0.00  0.00  0.54  0.00
  WW-0250>WW-0245         1.00   0.00  0.00  0.00  1.00  0.00  0.00  0.00  0.04  0.00
  WW-0255>WW-0250         1.00   0.00  0.00  0.00  1.00  0.00  0.00  0.00  0.25  0.00
  WW-0260>WW-0255         1.00   0.00  0.00  0.00  1.00  0.00  0.00  0.00  0.66  0.00
  WW-0265>WW-0260         1.00   0.00  0.00  0.00  1.00  0.00  0.00  0.00  0.01  0.00
  WW-0270>WW-0265         1.00   0.00  0.00  0.00  1.00  0.00  0.00  0.00  1.00  0.00
  WW-0275>WW-0270         1.00   0.00  0.00  0.00  1.00  0.00  0.00  0.00  0.00  0.00
  WW-0280>WW-0275         1.00   0.00  0.00  0.00  1.00  0.00  0.00  0.00  0.29  0.00
  WW-0285>WW-0280         1.00   0.00  0.00  0.00  1.00  0.00  0.00  0.00  1.00  0.00
  WW-0290>WW-0285         1.00   0.00  0.00  0.00  1.00  0.00  0.00  0.00  0.03  0.00
  WW-0295>WW-0290         1.00   0.00  0.00  0.00  1.00  0.00  0.00  0.00  0.01  0.00
  WW-0300>WW-0295         1.00   0.00  0.00  0.00  1.00  0.00  0.00  0.00  0.95  0.00
  WW-0305>WW-0300         1.00   0.00  0.00  0.00  1.00  0.00  0.00  0.00  0.12  0.00
  WW-0310>WW-0305         1.00   0.00  0.00  0.00  1.00  0.00  0.00  0.00  0.87  0.00
  WW-0315>WW-0310         1.00   0.00  0.00  0.00  1.00  0.00  0.00  0.00  0.00  0.00
  WW-0320>WW-0315         1.00   0.00  0.00  0.00  1.00  0.00  0.00  0.00  0.21  0.00
  WW-0325>WW-0320         1.00   0.00  0.00  0.00  1.00  0.00  0.00  0.00  0.11  0.00
  WW-0330>WW-0325         1.00   0.00  0.00  0.00  1.00  0.00  0.00  0.00  1.00  0.00
  WW-0335>WW-0330         1.00   0.00  0.00  0.00  1.00  0.00  0.00  0.00  0.99  0.00
  WW-0340>WW-0335         1.00   0.00  0.00  0.00  1.00  0.00  0.00  0.00  0.01  0.00
  WW-0345>WW-0340         1.00   0.00  0.00  0.00  1.00  0.00  0.00  0.00  1.00  0.00
  WW-0350>WW-0345         1.00   0.00  0.00  0.00  1.00  0.00  0.00  0.00  0.99  0.00
  WW-0355>WW-0350         1.00   0.00  0.00  0.00  1.00  0.00  0.00  0.00  0.05  0.00
  WW-0360>WW-0355         1.00   0.00  0.00  0.00  1.00  0.00  0.00  0.00  0.98  0.00
  WW-0365>WW-0360         1.00   0.00  0.00  0.00  1.00  0.00  0.00  0.00  0.85  0.00
  WW-0370>WW-0365         1.00   0.00  0.00  0.00  1.00  0.00  0.00  0.00  0.01  0.00
  WW-0375>WW-0370         1.00   0.00  0.00  0.00  1.00  0.00  0.00  0.00  0.17  0.00
  WW-0380>WW-0375         1.00   0.00  0.00  0.00  1.00  0.00  0.00  0.00  0.97  0.00
  WW-0385>WW-0380         1.00   0.00  0.00  0.00  1.00  0.00  0.00  0.00  0.00  0.00
  WW-0390>WW-0385         1.00   0.00  0.00  0.00  1.00  0.00  0.00  0.00  0.98  0.00
  WW-0395>WW-0390         1.00   0.00  0.00  0.00  1.00  0.00  0.00  0.00  0.00  0.00
  WW-0400>WW-0395         1.00   0.00  0.00  0.00  1.00  0.00  0.00  0.00  0.93  0.00
  WW-0405>WW-0400         1.00   0.00  0.00  0.00  1.00  0.00  0.00  0.00  0.98  0.00
  WW-0410>WW-0405         1.00   0.00  0.00  0.00  1.00  0.00  0.00  0.00  0.66  0.00
  WW-0415>WW-0410         1.00   0.00  0.00  0.00  1.00  0.00  0.00  0.00  0.06  0.00
  WW-0420>WW-0415         1.00   0.00  0.00  0.00  1.00  0.00  0.00  0.00  0.85  0.00
  WW-0425>WW-0420         1.00   0.00  0.00  0.00  1.00  0.00  0.00  0.00  0.21  0.00
  WW-0430>WW-0425         1.00   0.00  0.00  0.00  1.00  0.00  0.00  0.00  0.42  0.00
  WW-0435>WW-0185         1.83   0.00  0.00  0.00  0.03  0.96  0.00  0.00  1.00  0.00
  WW-0440>WW-0435         1.47   0.00  0.00  0.00  0.05  0.95  0.00  0.00  0.90  0.00
  WW-0445>WW-0440         1.66   0.00  0.00  0.00  0.06  0.94  0.00  0.00  0.17  0.00
  WW-0450>WW-0445         1.00   0.00  0.01  0.00  0.04  0.95  0.00  0.00  0.59  0.00
  WW-0455>WW-0450         1.00   0.01  0.00  0.00  0.99  0.00  0.00  0.00  0.00  0.00
  WW-0460>WW-0455         1.00   0.01  0.00  0.00  0.99  0.00  0.00  0.00  0.57  0.00
  WW-0465>WW-0460         1.00   0.01  0.00  0.00  0.99  0.00  0.00  0.00  0.94  0.00
  WW-0470>WW-0465         1.00   0.00  0.00  0.00  1.00  0.00  0.00  0.00  0.64  0.00
  WW-0475>WW-0470         1.00   0.00  0.00  0.00  0.00  0.00  0.00  1.00  0.00  0.00
  WW-0480>WW-0440         1.00   0.00  0.02  0.00  0.96  0.01  0.00  0.00  0.96  0.00
  WW-0485>WW-0480         1.00   0.02  0.00  0.00  0.00  0.00  0.00  0.98  0.00  0.00
  WW-0490>WW-0485         1.00   0.02  0.00  0.00  0.97  0.01  0.00  0.00  0.31  0.00
  WW-0495>WW-0490         2.64   0.01  0.00  0.00  0.02  0.97  0.00  0.00  0.97  0.00
  WW-0500>WW-0495         1.00   0.01  0.00  0.00  0.99  0.00  0.00  0.00  0.00  0.00
  WW-0505>WW-0500         1.00   0.01  0.00  0.00  0.99  0.00  0.00  0.00  0.95  0.00
  WW-0510>WW-0505         1.00   0.00  0.00  0.00  1.00  0.00  0.00  0.00  0.96  0.00
  WW-0515>WW-0510         1.00   0.00  0.00  0.00  1.00  0.00  0.00  0.00  0.99  0.00
  WW-0515>WW-0545         1.00   1.00  0.00  0.00  0.00  0.00  0.00  0.00  0.00  0.00
  WW-0520>WW-0515         1.00   0.00  0.00  0.00  0.00  1.00  0.00  0.00  1.00  0.00
  WW-0525>WW-0520         1.00   0.00  0.00  0.00  0.00  1.00  0.00  0.00  0.00  0.00
  WW-0530>WW-0525         1.00   0.00  1.00  0.00  0.00  0.00  0.00  0.00  0.00  0.00
  WW-0535>WW-0490         1.00   0.02  0.98  0.00  0.00  0.00  0.00  0.00  0.00  0.00
  WW-0540>WW-0535         1.00   1.00  0.00  0.00  0.00  0.00  0.00  0.00  0.00  0.00
  WW-0545>WW-0540         1.00   1.00  0.00  0.00  0.00  0.00  0.00  0.00  0.00  0.00
  WW-0550>WW-0435         1.00   0.00  0.00  0.00  0.00  0.00  0.00  1.00  0.00  0.00
  WW-0555>WW-0550         1.00   0.00  0.00  0.00  1.00  0.00  0.00  0.00  0.93  0.00
  WW-0560>WW-0555         1.00   0.00  0.00  0.00  1.00  0.00  0.00  0.00  0.98  0.00
  WW-0565>WW-0560         1.00   0.00  0.00  0.00  0.70  0.30  0.00  0.00  0.39  0.00
  WW-0570>WW-0565         1.00   0.00  0.00  0.00  0.98  0.02  0.00  0.00  0.01  0.00
  WW-0575>WW-0570         1.00   0.00  0.00  0.00  0.99  0.01  0.00  0.00  0.93  0.00
  WW-0580>WW-0575         1.00   0.00  0.00  0.00  1.00  0.00  0.00  0.00  0.00  0.00
  WW-0585>WW-0580         1.00   0.00  0.01  0.00  0.99  0.00  0.00  0.00  0.97  0.00
  WW-0590>WW-0585         1.00   0.01  0.00  0.00  0.93  0.07  0.00  0.00  0.97  0.00
  WW-0595>WW-0590         1.00   0.00  0.00  0.00  0.27  0.73  0.00  0.00  0.00  0.00
  WW-0600>WW-0595         1.00   0.00  0.00  0.00  0.01  0.99  0.00  0.00  1.00  0.00
  WW-0605>WW-0600         1.00   0.00  0.00  0.00  0.01  0.99  0.00  0.00  0.00  0.00
  WW-0610>WW-0605         1.00   0.00  0.00  0.00  0.02  0.98  0.00  0.00  0.97  0.00
  
  
  *************************
  Conduit Surcharge Summary
  *************************
  
  ----------------------------------------------------------------------------
                                                           Hours        Hours 
                         --------- Hours Full --------   Above Full   Capacity
  Conduit                Both Ends  Upstream  Dnstream   Normal Flow   Limited
  ----------------------------------------------------------------------------
  BR-0005>WW-0075             0.01      0.53      0.01      0.54         0.01
  BR-0020>BR-0015             0.01      0.01     22.83      0.01         0.01
  CC-0545>CC-0540            22.98     22.98     22.99      0.01         0.01
  CC-0550>CC-0545            21.50     21.51     22.99      3.10         1.61
  CC-0555>CC-0550             0.01      0.01     22.61      0.01         0.01
  CC-0935>CC-0930             0.01      0.01     23.00      0.01         0.01
  CC-1075>CC-1070             0.01      0.05      0.01      0.01         0.01
  CC-1080>CC-1075             0.01      0.01     23.00      0.01         0.01
  CE-0085>CE-0100             0.01      0.01      0.45      0.01         0.01
  ED-0475>ED-0470             0.01      0.01      6.81      0.01         0.01
  GE-0050>GE-0045             0.01      0.01      2.89      0.01         0.01
  GE-0060>GE-0055             0.01      0.01     22.96      0.01         0.01
  GE-0165>GE-0160             0.01      0.01     22.90      0.01         0.01
  GE-0220>GE-0215             0.01      1.10      0.01      2.18         0.01
  GE-0225>GE-0220             0.01      0.01      0.31      0.01         0.01
  GE-0230>GE-0225             0.01      0.01      0.01      0.01         0.01
  GE-0275>GE-0225             0.01      0.01      0.01      0.01         0.01
  GE-0395>GE-0390             1.91      1.96      1.91      1.96         1.91
  GW-1875>GW-1870             0.01      0.05      0.01      0.06         0.01
  GW-1880>GW-1875             0.01      0.01     23.00      0.01         0.01
  IE_OUT_GE_0050              0.01      0.33      0.01      0.31         0.01
  IE_OUT_PV_0810_01           0.01      0.11     14.05      0.11         0.01
  NC-0905>NC-0900             0.01      0.01     14.40      0.01         0.01
  NC-1070>NC-1065             0.01      0.01      0.01      0.02         0.01
  NC-1075>NC-1070             0.01      0.01     22.88      0.01         0.01
  NC-1500>NC-1070             0.01      0.01     21.81      0.01         0.01
  NC-1690>NC-0080             0.01      0.01     14.18      0.01         0.01
  PV-0601>PV-0600             0.01      1.31      0.01      1.31         0.01
  PV-0740>PV-0735             0.01      1.47      0.01      1.47         0.01
  PV-0745>PV-0740             0.01      0.01     23.00      0.01         0.01
  PV-0765>PV-0740             0.01      0.01     23.00      0.01         0.01
  PV-0820>PV-0815             0.01      0.01     23.00      0.01         0.01
  PV-0940>PV-0935             0.20      0.29      6.62      0.29         0.20
  PV-0945>PV-0940             0.01      0.01     23.00      0.01         0.01
  PV-2105>PV-1715             0.01      0.01     23.00      0.01         0.01
  PV-3390>PV-3385             0.14      0.16      0.15      0.16         0.14
  PV-3395>PV-3390             0.01      0.01     23.00      0.01         0.01
  WW-0105>WW-0100             0.01      0.01     14.86      0.01         0.01
  
  
  ***************
  Pumping Summary
  ***************
  
  ---------------------------------------------------------------------------------------------------------
                                                  Min       Avg       Max     Total     Power    % Time Off
                        Percent   Number of      Flow      Flow      Flow    Volume     Usage    Pump Curve
  Pump                 Utilized   Start-Ups       GPM       GPM       GPM  10^6 gal     Kw-hr    Low   High
  ---------------------------------------------------------------------------------------------------------
  1ST_POPLAR_1             3.55        1465      0.00    399.18    416.18     0.020      0.92    0.0    0.0
  1ST_POPLAR_2             3.55        1465      0.00    399.18    416.18     0.020      0.92    0.0    0.0
  AIRPORT_PUMP_1           7.06        2673      0.00    170.28    775.00     0.016      2.90    0.0    0.0
  AIRPORT_PUMP_2           7.06        2673      0.00    170.28    775.00     0.016      2.90    0.0    0.0
  BAR_NUNN_1_1             1.24         486      0.00   1006.66   1035.12     0.017      3.24    0.0    0.0
  BAR_NUNN_1_2             1.24         486      0.00   1006.66   1035.12     0.017      3.24    0.0    0.0
  BAR_NUNN_2_1             1.85         731      0.00    869.44    929.99     0.022      7.09    0.0    0.0
  BAR_NUNN_2_2             1.85         731      0.00    869.44    929.99     0.022      7.09    0.0    0.0
  BEGONIA_1                9.28        1177      0.00     51.62    160.32     0.007      0.44    0.0    0.0
  BEGONIA_2                9.28        1177      0.00     51.62    160.32     0.007      0.44    0.0    0.0
  BRYAN_STOCK_TRAIL_1      2.94         247      0.00     69.56    239.88     0.003      0.20    0.0    0.0
  BRYAN_STOCK_TRAIL_2      2.94         247      0.00     69.56    239.88     0.003      0.20    0.0    0.0
  CABIN_CREEK_PUMP         5.68           1      0.00     38.18    775.00     0.003      0.61    0.0    0.1
  INDIAN_PAINTBRUSH_1     10.34        3760      0.00    182.58    276.56     0.026      0.49    0.0    0.0
  INDIAN_PAINTBRUSH_2     10.34        3760      0.00    182.58    276.56     0.026      0.49    0.0    0.0
  IZAAK_WALTON_1           0.97         284      0.00    284.24    400.00     0.004      0.24    0.0    2.5
  IZAAK_WALTON_2           0.97         284      0.00    284.24    400.00     0.004      0.24    0.0    2.5
  NORTH_PLATTE_1          10.04        4128      0.00    531.64    557.75     0.074      2.92    0.0    0.0
  NORTH_PLATTE_2          10.04        4128      0.00    531.64    557.75     0.074      2.92    0.0    0.0
  PLATTE_RIV_COM_1         1.69          95      0.00     89.47    325.00     0.002      0.08    0.0   21.9
  PLATTE_RIV_COM_2         1.69          95      0.00     89.47    325.00     0.002      0.08    0.0   21.9
  PLATTE_RIV_PARK_1        8.51           1      0.00     22.92     57.00     0.003      0.73    0.0    0.1
  PLATTE_RIV_PARK_2        8.51           1      0.00     22.92     57.00     0.003      0.73    0.0    0.1
  RIVER_WEST_1             7.41        3060      0.00   1005.29   1021.95     0.103      5.18    0.0    0.0
  RIVER_WEST_2             7.41        3060      0.00   1005.29   1021.95     0.103      5.18    0.0    0.0
  SAGEBRUSH_1              6.99        2612      0.00    220.41    285.33     0.021      0.78    0.0    0.0
  SAGEBRUSH_2              6.99        2612      0.00    220.41    285.33     0.021      0.78    0.0    0.0
  SUNFLOWER_1              1.22         311      0.00    231.82    405.21     0.004      0.11    0.0    0.0
  SUNFLOWER_2              1.22         311      0.00    231.82    405.21     0.004      0.11    0.0    0.0
  WESTSHORE_PUMPS_1        7.15         296      0.00    116.16    198.56     0.012      0.80    0.0    0.0
  WESTSHORE_PUMPS_2        7.15         296      0.00    116.16    198.56     0.012      0.80    0.0    0.0
  

  Analysis begun on:  Fri Mar  6 12:31:37 2026
  Analysis ended on:  Fri Mar  6 12:34:39 2026
  Total elapsed time: 00:03:02