
  EPA STORM WATER MANAGEMENT MODEL - VERSION 5.2 (Build 5.2.4)
  ------------------------------------------------------------

  \ 
  WARNING 04: minimum elevation drop used for Conduit 09184510
  WARNING 04: minimum elevation drop used for Conduit 27393
  WARNING 04: minimum elevation drop used for Conduit 27420
  WARNING 04: minimum elevation drop used for Conduit 36519
  WARNING 04: minimum elevation drop used for Conduit 43155
  WARNING 04: minimum elevation drop used for Conduit 95041
  WARNING 04: minimum elevation drop used for Conduit 95602
  WARNING 02: maximum depth increased for Node 36504
  WARNING 02: maximum depth increased for Node 36505
  WARNING 02: maximum depth increased for Node 37026_1
  WARNING 02: maximum depth increased for Node 37026_2
  WARNING 02: maximum depth increased for Node 37035_3
  WARNING 02: maximum depth increased for Node 37035_4
  WARNING 02: maximum depth increased for Node 27502_1
  WARNING 02: maximum depth increased for Node 93-49710
  WARNING 02: maximum depth increased for Node 93-50321
  WARNING 02: maximum depth increased for Node 93-50322
  WARNING 02: maximum depth increased for Node 93-50323
  WARNING 02: maximum depth increased for Node 93-50324
  WARNING 02: maximum depth increased for Node 93-50325
  WARNING 02: maximum depth increased for Node 93-50439
  WARNING 02: maximum depth increased for Node 93-90327
  WARNING 02: maximum depth increased for Node 93-90328
  WARNING 02: maximum depth increased for Node 93-90329
  WARNING 02: maximum depth increased for Node 93-90330
  WARNING 02: maximum depth increased for Node 93-90331
  
  *************
  Element Count
  *************
  Number of rain gages ...... 1
  Number of subcatchments ... 45
  Number of nodes ........... 346
  Number of links ........... 363
  Number of pollutants ...... 0
  Number of land uses ....... 0
  
  
  ****************
  Raingage Summary
  ****************
                                                      Data       Recording
  Name                 Data Source                    Type       Interval 
  ------------------------------------------------------------------------
  TEST-1               MDEQTYPEII_100                 VOLUME       5 min.
  
  
  ********************
  Subcatchment Summary
  ********************
  Name                       Area     Width   %Imperv    %Slope Rain Gage            Outlet              
  -----------------------------------------------------------------------------------------------------------
  1040                       5.97   1299.83     50.00    1.7200 TEST-1               27140               
  1044                      11.96   2604.85     40.00    1.5450 TEST-1               27139               
  1067                       2.69    585.07     45.00    1.1200 TEST-1               27178               
  1069                       4.43    965.66     45.00    1.2000 TEST-1               27170               
  1072                       6.64   1446.23     50.00    1.0550 TEST-1               27152               
  1073                       2.48    540.88     57.00    1.3550 TEST-1               27173               
  1075                      28.40   6185.47     26.00    1.2100 TEST-1               09192508            
  1076                       9.95   2167.09     50.00    0.7500 TEST-1               09191571            
  1094                       9.64   2099.51     53.00    0.9700 TEST-1               35254               
  1096                       8.98   1955.70     12.00    2.1750 TEST-1               27131               
  1105                       7.33   1595.64     36.00    2.2500 TEST-1               27191               
  1108                      14.36   3127.10     17.00    2.2000 TEST-1               27125               
  1112                      15.36   3344.93     39.00    2.0300 TEST-1               27205               
  1121                       5.68   1237.80     18.00    4.0200 TEST-1               27195               
  1122                      37.50   1800.00      2.00    1.2850 TEST-1               93-49710            
  1145                       8.36   1821.00     30.00    4.2500 TEST-1               39074               
  1149                      22.25    600.00     29.00    4.4400 TEST-1               37196               
  1151                       3.79    824.54     37.00    3.3950 TEST-1               93-90329            
  1152                       4.96   1080.90     31.00    3.8450 TEST-1               32151               
  1154                       3.68    801.50      9.00    5.6700 TEST-1               27339               
  1173                       9.45   2058.00     25.00    3.2900 TEST-1               93-90331            
  1174                       5.46   1188.73     38.00    4.7000 TEST-1               93-90330            
  1180                      15.91   1550.00     10.00    4.4100 TEST-1               37099               
  1186                       3.37    734.22     40.00    4.1050 TEST-1               27420               
  1187                       2.74    597.51     22.00    1.7300 TEST-1               93-50324            
  1195                       2.03    441.19     33.00    5.3600 TEST-1               09184515            
  1197                      61.95   2100.00      1.00    3.0450 TEST-1               44482               
  1203                      17.14   3732.71     22.00    3.5150 TEST-1               37097_2             
  1209                      18.17   3956.45     25.00    4.2850 TEST-1               09184504            
  1210                       5.51   1200.26     36.00    4.9700 TEST-1               27398               
  1229                       1.68    365.47      9.00    6.6050 TEST-1               93-50325            
  1233                      29.14   6347.16     26.00    4.1150 TEST-1               27555               
  1249                      17.36   3780.65     27.00    3.7350 TEST-1               27540               
  1252                      32.30   1500.00     11.00    5.0950 TEST-1               36504_1             
  1272                      38.92   8475.86     26.00    2.1650 TEST-1               27536               
  1282                      16.56   3607.15     34.00    2.3350 TEST-1               90169               
  1284                       7.87   1714.12     18.00    5.3900 TEST-1               43155               
  1303                      35.82   7802.20      9.00    3.9600 TEST-1               43154_2             
  1406                       5.97   1300.06     47.00    1.3550 TEST-1               27159               
  1407                       2.30    500.89     63.00    0.7800 TEST-1               27150               
  1408                      17.58   3828.69     18.00    1.4950 TEST-1               27200               
  1409                       3.87    843.23     46.00    3.2600 TEST-1               39081               
  1600                       3.13    681.71      0.00    1.0000 TEST-1               93-50439            
  1601                      28.80   1000.00      5.00    1.0000 TEST-1               37109               
  1602                      14.58   1070.00     11.00    5.0900 TEST-1               37035_1             
  
  
  ************
  Node Summary
  ************
                                           Invert      Max.    Ponded    External
  Name                 Type                 Elev.     Depth      Area    Inflow  
  -------------------------------------------------------------------------------
  09181565             JUNCTION            876.61      6.92    5000.0
  09182501             JUNCTION            874.04      5.33    5000.0
  09183501             JUNCTION            897.96      6.16    5000.0
  09183504             JUNCTION            899.18      6.50    5000.0
  09183505             JUNCTION            908.61      6.08    5000.0
  09183508             JUNCTION            906.03      7.00    5000.0
  09183509             JUNCTION            902.29      8.08    5000.0
  09183517             JUNCTION            899.11      5.33    5000.0
  09183518             JUNCTION            900.89      5.67    5000.0
  09184501             JUNCTION            894.24      6.50    5000.0
  09184502             JUNCTION            892.06      8.17    5000.0
  09184503             JUNCTION            894.42      5.84    5000.0
  09184504             JUNCTION            893.16      6.33    5000.0
  09184507             JUNCTION            892.45      7.50    5000.0
  09184509             JUNCTION            893.34      6.66    5000.0
  09184510             JUNCTION            893.84      5.99    5000.0
  09184511             JUNCTION            892.96      6.95    5000.0
  09184515             JUNCTION            895.08      8.67    5000.0
  09184516             JUNCTION            890.46     10.50    5000.0
  09184518             JUNCTION            894.98      5.50    5000.0
  09184524             JUNCTION            888.14      5.92    5000.0
  09184525             JUNCTION            885.43      5.75    5000.0
  09191559             JUNCTION            967.60      8.50    5000.0
  09191560             JUNCTION            963.93     11.07    5000.0
  09191561             JUNCTION            963.59     11.41    5000.0
  09191564             JUNCTION            962.60      9.43    5000.0
  09191566             JUNCTION            961.90      9.27    5000.0
  09191569             JUNCTION            961.69      9.26    5000.0
  09191570             JUNCTION            961.02     14.00    5000.0
  09191571             JUNCTION            960.76     15.44    5000.0
  09191572             JUNCTION            959.86     21.74    5000.0
  09191573             JUNCTION            959.45     23.00    5000.0
  09191574             JUNCTION            958.14     19.51    5000.0
  09191575             JUNCTION            957.31     14.34    5000.0
  09191576             JUNCTION            956.44     13.36    5000.0
  09191577             JUNCTION            955.95     14.92    5000.0
  09191578             JUNCTION            955.60     14.94    5000.0
  09191579             JUNCTION            955.33     20.00    5000.0
  09191580             JUNCTION            946.25     10.00    5000.0
  09191581             JUNCTION            947.08     13.56    5000.0
  09191582             JUNCTION            956.47     24.00    5000.0
  09191583             JUNCTION            955.00     24.00    5000.0
  09191584             JUNCTION            946.28      8.55    5000.0
  09192508             JUNCTION            956.09      7.91    5000.0
  09192528             JUNCTION            944.60      6.42    5000.0
  09192910             JUNCTION            933.24      3.00    5000.0
  27124                JUNCTION            928.20     20.00    5000.0
  27125                JUNCTION            928.71     10.95    5000.0
  27127                JUNCTION            929.19      6.21    5000.0
  27128                JUNCTION            930.04      9.56    5000.0
  27129                JUNCTION            931.94      5.25    5000.0
  27131                JUNCTION            940.08      9.32    5000.0
  27132                JUNCTION            934.66      8.75    5000.0
  27133                JUNCTION            940.11      9.29    5000.0
  27134                JUNCTION            941.00     11.80    5000.0
  27135                JUNCTION            941.95     12.05    5000.0
  27136                JUNCTION            943.05      8.45    5000.0
  27138                JUNCTION            944.27      7.73    5000.0
  27139                JUNCTION            947.42      5.45    5000.0
  27140                JUNCTION            944.84      6.85    5000.0
  27149                JUNCTION            959.96      8.53    5000.0
  27150                JUNCTION            956.42      9.79    5000.0
  27151                JUNCTION            953.30     10.90    5000.0
  27152                JUNCTION            954.58      9.30    5000.0
  27153                JUNCTION            955.75      8.39    5000.0
  27154                JUNCTION            956.56      8.64    5000.0
  27155                JUNCTION            957.17      9.53    5000.0
  27156                JUNCTION            957.80     10.52    5000.0
  27157                JUNCTION            958.63      9.21    5000.0
  27158                JUNCTION            959.15      7.94    5000.0
  27159                JUNCTION            950.75     11.10    5000.0
  27160                JUNCTION            954.97      8.74    5000.0
  27161                JUNCTION            952.81      8.16    5000.0
  27162                JUNCTION            953.80      8.91    5000.0
  27163                JUNCTION            956.31      9.55    5000.0
  27164                JUNCTION            949.46      7.89    5000.0
  27165                JUNCTION            950.72      7.35    5000.0
  27166                JUNCTION            955.89      7.48    5000.0
  27167                JUNCTION            960.41      7.93    5000.0
  27168                JUNCTION            952.62      8.32    5000.0
  27169                JUNCTION            954.84      7.94    5000.0
  27170                JUNCTION            951.21      7.95    5000.0
  27171                JUNCTION            950.19      8.18    5000.0
  27172                JUNCTION            949.74      8.35    5000.0
  27173                JUNCTION            952.27      8.60    5000.0
  27174                JUNCTION            954.14      8.61    5000.0
  27175                JUNCTION            957.58      8.53    5000.0
  27176                JUNCTION            947.50     10.22    5000.0
  27177                JUNCTION            947.14      9.28    5000.0
  27178                JUNCTION            945.81      9.28    5000.0
  27187                JUNCTION            946.94      7.38    5000.0
  27188                JUNCTION            941.36      8.33    5000.0
  27189                JUNCTION            936.10      7.52    5000.0
  27190                JUNCTION            933.94      9.75    5000.0
  27191                JUNCTION            936.65     11.39    5000.0
  27192                JUNCTION            939.31     11.58    5000.0
  27193                JUNCTION            936.71      6.42    5000.0
  27194                JUNCTION            933.27      6.53    5000.0
  27195                JUNCTION            931.42      9.48    5000.0
  27196                JUNCTION            936.68      7.91    5000.0
  27197                JUNCTION            929.90     20.00    5000.0
  27200                JUNCTION            935.20      9.68    5000.0
  27201                JUNCTION            944.70     10.87    5000.0
  27202                JUNCTION            945.74      8.86    5000.0
  27203                JUNCTION            931.45     10.34    5000.0
  27204                JUNCTION            933.11      9.19    5000.0
  27205                JUNCTION            931.72      9.18    5000.0
  27206                JUNCTION            945.54     10.55    5000.0
  27207                JUNCTION            932.30      7.00    5000.0
  27208                JUNCTION            942.62      8.94    5000.0
  27209                JUNCTION            933.19      3.45    5000.0
  27210                JUNCTION            933.30      3.42    5000.0
  27211                JUNCTION            935.41      8.65    5000.0
  27212                JUNCTION            936.72     14.11    5000.0
  27213                JUNCTION            938.30      7.07    5000.0
  27230                JUNCTION            949.41      7.39    5000.0
  27231                JUNCTION            947.43      4.43    5000.0
  27339                JUNCTION            923.65      7.46    5000.0
  27341                JUNCTION            940.34      8.92    5000.0
  27349                JUNCTION            875.04      8.08    5000.0
  27350                JUNCTION            884.40      5.43    5000.0
  27383                JUNCTION            902.83      5.82    5000.0
  27393                JUNCTION            893.29      6.06    5000.0
  27394                JUNCTION            896.34      4.66    5000.0
  27396                JUNCTION            891.75     17.17    5000.0
  27398                JUNCTION            880.40     10.40    5000.0
  27402                JUNCTION            868.52      8.59    5000.0
  27403                JUNCTION            871.68     13.76    5000.0
  27404                JUNCTION            871.00     20.00    5000.0
  27406                JUNCTION            882.38     10.17    5000.0
  27407                JUNCTION            880.80     20.00    5000.0
  27410                JUNCTION            882.65     10.00    5000.0
  27417                JUNCTION            889.89      8.60    5000.0
  27419                JUNCTION            888.98     11.33    5000.0
  27420                JUNCTION            888.42     12.50    5000.0
  27421                JUNCTION            889.09     12.25    5000.0
  27423                JUNCTION            897.24     20.00    5000.0
  27424                JUNCTION            899.62      7.73    5000.0
  27425                JUNCTION            898.22     20.00    5000.0
  27441                JUNCTION            905.04      3.46    5000.0
  27442                JUNCTION            904.58      3.42    5000.0
  27446                JUNCTION            916.50      4.75    5000.0
  27447                JUNCTION            915.68      4.23    5000.0
  27448                JUNCTION            914.80      5.09    5000.0
  27449                JUNCTION            910.12      3.97    5000.0
  27450                JUNCTION            907.99      5.55    5000.0
  27451                JUNCTION            907.34      6.20    5000.0
  27456                JUNCTION            913.00      5.49    5000.0
  27459                JUNCTION            917.76      8.78    5000.0
  27461                JUNCTION            928.84     10.10    5000.0
  27463                JUNCTION            940.89     12.11    5000.0
  27465                JUNCTION            949.13      8.07    5000.0
  27466                JUNCTION            941.13      6.17    5000.0
  27467                JUNCTION            932.29      7.71    5000.0
  27468                JUNCTION            924.98      6.52    5000.0
  27470                JUNCTION            924.04      2.96    5000.0
  27471                JUNCTION            947.50      5.00    5000.0
  27473                JUNCTION            912.50      6.00    5000.0
  27475                JUNCTION            911.00      5.63    5000.0
  27480                JUNCTION            947.56      6.42    5000.0
  27481                JUNCTION            948.63      6.70    5000.0
  27482                JUNCTION            921.26      6.15    5000.0
  27486                JUNCTION            919.71     11.25    5000.0
  27488                JUNCTION            918.21      3.33    5000.0
  27490                JUNCTION            936.96     11.58    5000.0
  27492                JUNCTION            940.81     10.08    5000.0
  27493                JUNCTION            947.10      9.42    5000.0
  27500                JUNCTION            881.20      7.92    5000.0
  27502                JUNCTION            800.20     20.00    5000.0
  27502A               JUNCTION            800.20     20.00    5000.0
  27503                JUNCTION            828.66     13.06    5000.0
  27504                JUNCTION            830.20      8.25    5000.0
  27505                JUNCTION            808.40      5.60    5000.0
  27507                JUNCTION            827.12     12.35    5000.0
  27508                JUNCTION            831.07     11.10    5000.0
  27509                JUNCTION            806.70      6.51    5000.0
  27510                JUNCTION            821.26      6.42    5000.0
  27526                JUNCTION            827.63      9.71    5000.0
  27527                JUNCTION            825.58      7.87    5000.0
  27528                JUNCTION            822.33      7.59    5000.0
  27529                JUNCTION            819.21      6.98    5000.0
  27530                JUNCTION            816.43      6.38    5000.0
  27531                JUNCTION            836.25      7.00    5000.0
  27532                JUNCTION            831.72      9.07    5000.0
  27533                JUNCTION            830.00      5.79    5000.0
  27534                JUNCTION            832.80      7.00    5000.0
  27535                JUNCTION            833.20      6.67    5000.0
  27536                JUNCTION            834.92      6.17    5000.0
  27537                JUNCTION            836.09      8.33    5000.0
  27538                JUNCTION            842.06     14.58    5000.0
  27539                JUNCTION            845.45     11.42    5000.0
  27540                JUNCTION            855.69      4.94    5000.0
  27541                JUNCTION            859.66      6.33    5000.0
  27542                JUNCTION            862.20      7.50    5000.0
  27543                JUNCTION            865.50      6.25    5000.0
  27544                JUNCTION            872.32      7.42    5000.0
  27545                JUNCTION            885.84      6.33    5000.0
  27546                JUNCTION            906.35      3.50    5000.0
  27547                JUNCTION            870.25      6.47    5000.0
  27549                JUNCTION            878.43      8.58    5000.0
  27550                JUNCTION            881.45      7.75    5000.0
  27551                JUNCTION            882.82      7.25    5000.0
  27552                JUNCTION            891.46      5.96    5000.0
  27554                JUNCTION            869.17      7.17    5000.0
  27555                JUNCTION            862.84     12.77    5000.0
  27557                JUNCTION            863.81     14.67    5000.0
  27558                JUNCTION            868.55     10.92    5000.0
  27559                JUNCTION            873.79      7.50    5000.0
  27560                JUNCTION            832.40      8.89    5000.0
  27563                JUNCTION            889.09      6.59    5000.0
  27564                JUNCTION            878.31      6.17    5000.0
  32145                JUNCTION            943.12      8.68    5000.0
  32146                JUNCTION            948.02      6.18    5000.0
  32147                JUNCTION            944.66      3.84    5000.0
  32148                JUNCTION            944.03      3.47    5000.0
  32149                JUNCTION            941.08      6.22    5000.0
  32150                JUNCTION            940.17      6.33    5000.0
  32151                JUNCTION            936.50     11.71    5000.0
  32153                JUNCTION            953.53      5.27    5000.0
  32154                JUNCTION            951.89      5.61    5000.0
  32220                JUNCTION            889.35      4.91    5000.0
  35051                JUNCTION            930.37      5.63    5000.0
  35052                JUNCTION            926.25      3.32    5000.0
  35055                JUNCTION            952.67      5.13    5000.0
  35090                JUNCTION            888.27      4.08    5000.0
  35236                JUNCTION            897.26      2.06    5000.0
  35237                JUNCTION            923.74      4.26    5000.0
  35251                JUNCTION            962.87      6.62    5000.0
  35252                JUNCTION            962.21      8.29    5000.0
  35253                JUNCTION            963.76      8.24    5000.0
  35254                JUNCTION            964.30      5.22    5000.0
  35260                JUNCTION            966.96     11.84    5000.0
  35261                JUNCTION            964.57     12.43    5000.0
  35703                JUNCTION            910.17      6.53    5000.0
  36500                JUNCTION            804.70      6.51    5000.0
  36504                JUNCTION            839.09     30.21    5000.0
  36504_1              JUNCTION            845.60     20.00    5000.0
  36505                JUNCTION            838.26     30.21    5000.0
  36508                JUNCTION            816.45      6.51    5000.0
  36519                JUNCTION            940.08      4.51    5000.0
  36537                JUNCTION            900.00     20.00    5000.0
  36537_2              JUNCTION            894.00     20.00    5000.0
  37004                JUNCTION            926.00     20.00    5000.0
  37026                JUNCTION            803.96     20.00    5000.0
  37026_1              JUNCTION            803.20     20.80       0.0
  37026_2              JUNCTION            802.30     20.80       0.0
  37031                JUNCTION            881.08     20.00    5000.0
  37033                JUNCTION            799.90     20.00    5000.0
  37034                JUNCTION            799.90     20.00    5000.0
  37035                JUNCTION            820.00     20.00    5000.0
  37035_1              JUNCTION            820.30     20.00       0.0
  37035_2              JUNCTION            821.30     20.00       0.0
  37035_3              JUNCTION            823.16     25.15       0.0
  37035_4              JUNCTION            823.46     25.15       0.0
  37035_5              JUNCTION            828.00     20.00       0.0
  37035_6              JUNCTION            830.70     20.00       0.0
  37035_7              JUNCTION            833.40     20.00       0.0
  37035_8              JUNCTION            836.50     20.00       0.0
  37036                JUNCTION            887.35     20.00    5000.0
  37036_2              JUNCTION            852.00     20.00    5000.0
  37036_3              JUNCTION            848.00     20.00    5000.0
  37037                JUNCTION            890.52     20.00    5000.0
  37049                JUNCTION            926.89     20.00    5000.0
  37050                JUNCTION            928.23      4.51    5000.0
  37096                JUNCTION            884.34     20.00    5000.0
  37097                JUNCTION            885.35     20.00    5000.0
  37097_2              JUNCTION            884.00     20.00    5000.0
  37097_4              JUNCTION            877.50     20.00    5000.0
  37097_5              JUNCTION            867.80     20.00    5000.0
  37097_6              JUNCTION            866.00     20.00    5000.0
  37098                JUNCTION            887.86     20.00    5000.0
  37099                JUNCTION            895.97     20.00    5000.0
  37100                JUNCTION            896.89     20.00    5000.0
  37105                JUNCTION            897.21     20.00    5000.0
  37106                JUNCTION            921.90     20.00    5000.0
  37106_2              JUNCTION            915.00     20.00    5000.0
  37107                JUNCTION            917.80     20.00    5000.0
  37109                JUNCTION            913.50     20.00    5000.0
  37110                JUNCTION            914.90     20.00    5000.0
  37111                JUNCTION            908.00     20.00    5000.0
  37111_2              JUNCTION            903.00     20.00    5000.0
  37111_20             JUNCTION            902.63     20.00    5000.0
  37113                JUNCTION            909.60     20.00    5000.0
  37114                JUNCTION            907.72     20.00    5000.0
  37117                JUNCTION            899.00     20.00    5000.0
  37117_2              JUNCTION            897.00     20.00    5000.0
  37119                JUNCTION            917.00     20.00    5000.0
  37120                JUNCTION            931.36     23.64    5000.0
  37121                JUNCTION            940.00     14.32    5000.0
  37195                JUNCTION            925.64     20.00    5000.0
  37195_2              JUNCTION            922.50     20.00    5000.0
  37196                JUNCTION            926.00     20.00    5000.0
  37197                JUNCTION            926.54     20.00    5000.0
  37200                JUNCTION            926.76     20.00    5000.0
  38059                JUNCTION            946.34      5.63    5000.0
  38062                JUNCTION            936.17      8.63    5000.0
  38246                JUNCTION            946.10      7.40    5000.0
  38258                JUNCTION            934.25     10.96    5000.0
  39052                JUNCTION            897.14     20.00    5000.0
  39058                JUNCTION            881.58      6.71    5000.0
  39073                JUNCTION            920.24     10.72    5000.0
  39074                JUNCTION            920.89     10.07    5000.0
  39077                JUNCTION            913.11      8.38    5000.0
  39079                JUNCTION            913.26      8.23    5000.0
  39081                JUNCTION            912.22      9.67    5000.0
  39129                JUNCTION            951.02      5.18    5000.0
  40013                JUNCTION            930.85      4.40    5000.0
  40035                JUNCTION            939.56      7.44    5000.0
  40135                JUNCTION            959.35      7.65    5000.0
  42373                JUNCTION            902.80      3.17    5000.0
  42375                JUNCTION            923.80     20.00    5000.0
  43154                JUNCTION            798.66     20.00    5000.0
  43155                JUNCTION            798.66     20.00    5000.0
  43747                JUNCTION            859.91      4.09    5000.0
  43748                JUNCTION            854.20     20.00    5000.0
  43749                JUNCTION            853.41      7.21    5000.0
  43757                JUNCTION            805.37      6.51    5000.0
  44482                JUNCTION            920.80     20.00    5000.0
  44482_2              JUNCTION            910.00     20.00    5000.0
  44482_3              JUNCTION            897.86     20.00    5000.0
  44483                JUNCTION            921.60     20.00    5000.0
  44484                JUNCTION            928.60     22.67    5000.0
  44486                JUNCTION            901.00      5.00    5000.0
  50000209             JUNCTION            928.00     20.00    5000.0
  90169                JUNCTION            814.80     10.36    5000.0
  95008                JUNCTION            879.23      1.75    5000.0
  95039                JUNCTION            895.00      5.74    5000.0
  95041                JUNCTION            897.86     20.00    5000.0
  95624                JUNCTION            860.00     20.00    5000.0
  95625                JUNCTION            859.50     20.00    5000.0
  95626                JUNCTION            937.33     17.67    5000.0
  27502_1              JUNCTION            800.30     20.50    5000.0
  43154_2              OUTFALL             798.00      8.00       0.0
  93-49710             STORAGE             950.00      5.00       0.0
  93-50321             STORAGE             885.00     13.30       0.0
  93-50322             STORAGE             887.00     15.66       0.0
  93-50323             STORAGE             872.00     23.44       0.0
  93-50324             STORAGE             898.00     12.75       0.0
  93-50325             STORAGE             857.50     13.12       0.0
  93-50326             STORAGE             830.00     10.10       0.0
  93-50439             STORAGE             948.00     28.25       0.0
  93-90327             STORAGE             919.00     12.55       0.0
  93-90328             STORAGE             926.50     24.50       0.0
  93-90329             STORAGE             912.00     15.75       0.0
  93-90330             STORAGE             903.00     12.98       0.0
  93-90331             STORAGE             897.50     12.33       0.0
  
  
  ************
  Link Summary
  ************
  Name             From Node        To Node          Type            Length    %Slope Roughness
  ---------------------------------------------------------------------------------------------
  09181565         09181565         27554            CONDUIT          251.7    2.7940    0.0130
  09182501         09182501         27544            CONDUIT           28.1    1.1048    0.0130
  09183501         09183501         27563            CONDUIT          188.4    4.3089    0.0130
  09183504         09183504         09184503         CONDUIT          145.8    2.8059    0.0130
  09183505         09183505         09183504         CONDUIT          232.6    3.8417    0.0130
  09183508         09183508         09183509         CONDUIT          129.2    2.2536    0.0130
  09183509         09183509         09184524         CONDUIT          287.0    4.7373    0.0130
  09183517         09183517         09184501         CONDUIT          242.7    1.4261    0.0130
  09183518         09183518         09183517         CONDUIT          141.8    1.0860    0.0130
  09184501         09184501         09184502         CONDUIT           54.6    0.9333    0.0130
  09184502         09184502         09184504         CONDUIT           81.5    0.4911    0.0130
  09184503         09184503         09184502         CONDUIT           56.8    0.4932    0.0130
  09184504         09184504         09184507         CONDUIT           55.1    0.9981    0.0130
  09184507         09184507         27396            CONDUIT          321.6    0.4198    0.0130
  09184509         09184509         09184507         CONDUIT           57.9    0.5184    0.0130
  09184510         09184510         09184509         CONDUIT            7.7    0.0130    0.0130
  09184511         09184511         09184510         CONDUIT          145.4    0.1375    0.0130
  09184515         09184515         27417            CONDUIT          124.3    0.9093    0.0130
  09184516         09184516         27419            CONDUIT           93.6    0.6090    0.0130
  09184518         09184518         27419            CONDUIT           47.6    2.2886    0.0130
  09184524         09184524         09184525         CONDUIT           72.8    3.6155    0.0130
  09184525         09184525         27350            CONDUIT           79.5    2.1504    0.0130
  09191559         09191559         35260            CONDUIT          150.0    0.3200    0.0130
  09191560         09191560         09191561         CONDUIT           12.0    2.5008    0.0130
  09191561         09191561         09191564         CONDUIT          221.0    0.2624    0.0130
  09191564         09191564         09191566         CONDUIT          110.0    0.6364    0.0130
  09191566         09191566         09191569         CONDUIT           44.0    0.4773    0.0130
  09191569         09191569         09191570         CONDUIT          215.0    0.2698    0.0130
  09191570         09191570         09191571         CONDUIT           43.0    0.4884    0.0130
  09191571         09191571         09191572         CONDUIT          306.0    0.2941    0.0130
  09191572         09191572         09191573         CONDUIT          113.0    0.3363    0.0130
  09191573         09191573         09191574         CONDUIT          402.0    0.2637    0.0130
  09191574         09191574         09191575         CONDUIT          355.0    0.2056    0.0130
  09191575         09191575         09191576         CONDUIT          332.0    0.2319    0.0130
  09191576         09191576         09191577         CONDUIT          126.0    0.2619    0.0130
  09191577         09191577         09191578         CONDUIT          112.0    0.2232    0.0130
  09191578         09191578         09191579         CONDUIT          106.0    0.2547    0.0130
  09191579         09191579         93-50439         CONDUIT           10.0  107.7579    0.0130
  09191580         09191580         09191581         CONDUIT          124.0    0.7420    0.0130
  09191581         09191581         09191584         CONDUIT          248.0    0.3226    0.0130
  09191582         09191582         09191583         CONDUIT           36.7    4.0130    0.0100
  09191583         09191583         93-49710         CONDUIT           10.0   57.7350    0.0130
  09191584         09191584         37121            CONDUIT           18.0    1.8892    0.0130
  09192508         09192508         27152            CONDUIT          161.9    0.4138    0.0130
  09192528         09192528         27138            CONDUIT          135.8    0.2430    0.0130
  09192910         09192910         27209            CONDUIT            5.5    0.9175    0.0130
  27124            27124            50000209         CONDUIT           37.6    0.5323    0.0350
  27125            27125            37050            CONDUIT          231.8    0.2071    0.0130
  27127            27127            27125            CONDUIT          242.2    0.1982    0.0130
  27128            27128            27127            CONDUIT          327.0    0.1957    0.0130
  27129            27129            27128            CONDUIT          205.4    0.7983    0.0130
  27131            27131            40035            CONDUIT           42.7    1.2167    0.0130
  27132            27132            27129            CONDUIT          263.5    1.0324    0.0130
  27133            27133            27131            CONDUIT            3.3    0.9064    0.0130
  27134            27134            27133            CONDUIT          131.7    0.3720    0.0130
  27135            27135            27134            CONDUIT          268.9    0.3532    0.0130
  27136            27136            27135            CONDUIT          294.9    0.3730    0.0130
  27138            27138            27136            CONDUIT          357.9    0.3409    0.0130
  27139            27139            27140            CONDUIT          315.8    0.3768    0.0130
  27140            27140            09192528         CONDUIT            9.5    2.5298    0.0130
  27149            27149            27150            CONDUIT          362.9    0.8377    0.0130
  27150            27150            27151            CONDUIT          143.1    0.9924    0.0130
  27151            27151            27159            CONDUIT          348.1    0.6033    0.0130
  27152            27152            27151            CONDUIT          130.1    0.5228    0.0130
  27153            27153            27152            CONDUIT          201.7    0.3817    0.0130
  27154            27154            27153            CONDUIT          106.4    0.5265    0.0130
  27155            27155            27154            CONDUIT          121.5    0.5020    0.0130
  27156            27156            27155            CONDUIT          125.5    0.5021    0.0130
  27157            27157            27156            CONDUIT          147.3    0.4005    0.0130
  27158            27158            27157            CONDUIT          130.8    0.3975    0.0130
  27159            27159            27139            CONDUIT          382.2    0.8712    0.0130
  27160            27160            27159            CONDUIT          183.1    1.2943    0.0130
  27161            27161            27159            CONDUIT           84.6    0.6026    0.0130
  27162            27162            27161            CONDUIT          129.8    0.6086    0.0130
  27163            27163            27162            CONDUIT          115.4    2.1324    0.0130
  27164            27164            27139            CONDUIT          172.8    0.7929    0.0130
  27165            27165            27139            CONDUIT          199.2    1.3201    0.0130
  27166            27166            27165            CONDUIT          120.5    4.2958    0.0130
  27167            27167            27166            CONDUIT          109.4    4.1363    0.0130
  27168            27168            27170            CONDUIT          139.8    1.0090    0.0130
  27169            27169            27168            CONDUIT          166.6    1.1645    0.0130
  27170            27170            27171            CONDUIT           89.4    0.9175    0.0130
  27171            27171            27172            CONDUIT           33.3    1.2024    0.0130
  27172            27172            27176            CONDUIT          200.3    1.1184    0.0130
  27173            27173            27172            CONDUIT          158.8    1.3412    0.0130
  27174            27174            27173            CONDUIT          142.7    1.3110    0.0130
  27175            27175            27174            CONDUIT          138.4    2.4796    0.0130
  27176            27176            27134            CONDUIT          148.7    3.2968    0.0130
  27177            27177            27178            CONDUIT          131.0    1.0151    0.0130
  27178            27178            27136            CONDUIT          115.4    1.0054    0.0130
  27187            27187            27188            CONDUIT          211.7    2.5188    0.0130
  27188            27188            27189            CONDUIT          210.0    0.9999    0.0130
  27189            27189            27132            CONDUIT           18.9    1.4310    0.0130
  27190            27190            27128            CONDUIT           93.4    0.9529    0.0130
  27191            27191            27190            CONDUIT          150.9    1.6903    0.0130
  27192            27192            27193            CONDUIT          143.9    1.4043    0.0130
  27193            27193            27194            CONDUIT          171.0    2.0121    0.0130
  27194            27194            27195            CONDUIT          264.5    0.6995    0.0130
  27195            27195            37050            CONDUIT          148.0    0.6892    0.0130
  27196            27196            27125            CONDUIT          218.5    1.5107    0.0130
  27197+           27197            40013            CONDUIT          149.5   -0.7493    0.0130
  27200            27200            27125            CONDUIT          210.4    2.2820    0.0130
  27201            27201            27200            CONDUIT          287.1    3.3104    0.0130
  27202            27202            27201            CONDUIT          205.4    0.5063    0.0130
  27203            27203            40013            CONDUIT          204.6    0.2932    0.0130
  27204            27204            27203            CONDUIT           40.2    0.2736    0.0130
  27205            27205            27203            CONDUIT          132.5    0.2038    0.0130
  27206            27206            27205            CONDUIT          211.4    4.9918    0.0130
  27207            27207            27205            CONDUIT          293.6    0.1975    0.0130
  27208            27208            27207            CONDUIT          207.4    4.2565    0.0130
  27209            27209            27207            CONDUIT          237.1    0.2066    0.0130
  27210            27210            09192910         CONDUIT           27.1    0.2218    0.0130
  27211            27211            27209            CONDUIT          227.0    0.6873    0.0130
  27212            27212            27211            CONDUIT          184.8    0.7090    0.0130
  27213            27213            27212            CONDUIT          316.0    0.5000    0.0130
  27230            27230            27231            CONDUIT          111.7    1.7722    0.0130
  27231            27231            27140            CONDUIT           54.5    2.6262    0.0130
  27339            27339            39079            CONDUIT          212.7    4.7246    0.0130
  27341            27341            38258            CONDUIT          130.4    4.5215    0.0130
  27349            27349            27559            CONDUIT           42.0    5.1785    0.0130
  27350            27350            27500            CONDUIT           46.9    1.6623    0.0130
  27383            27383            09183518         CONDUIT          135.8    1.3702    0.0130
  27393            27393            09184511         CONDUIT           47.5   -0.0021    0.0130
  27394            27394            27393            CONDUIT          160.7    0.8088    0.0130
  27396            27396            27398            CONDUIT          155.1    4.7457    0.0130
  27398            27398            93-50323         CONDUIT           79.8   10.5878    0.0130
  27402            27402            27403            CONDUIT           32.0    2.6292    0.0130
  27403            27403            27404            CONDUIT           77.4    0.8787    0.0130
  27404            27404            37097_6          CONDUIT           41.2   12.2293    0.0350
  27406            27406            27407            CONDUIT           82.5    2.1214    0.0130
  27407            27407            37097_5          CONDUIT          148.1    8.8131    0.0350
  27410            27410            37031            CONDUIT           92.3    6.0437    0.0130
  27417            27417            32220            CONDUIT           33.5    0.8945    0.0130
  27419            27419            27420            CONDUIT           65.9    0.4703    0.0130
  27420            27420            27421            CONDUIT           27.7   -0.0036    0.0130
  27421            27421            93-50321         CONDUIT          150.4    1.9613    0.0130
  27423            27423            27420            CONDUIT          131.9    3.0867    0.0130
  27424            27424            27425            CONDUIT           79.2    2.4009    0.0130
  27425            27425            36537_2          CONDUIT          121.4    3.4788    0.0400
  27441            27441            27442            CONDUIT           52.5    0.5715    0.0130
  27442            27442            93-90330         CONDUIT           97.4    0.5646    0.0130
  27446+           27446            27447            CONDUIT           72.0    1.1390    0.0130
  27447+           27447            27448            CONDUIT           78.0    1.1283    0.0130
  27448+           27448            27449            CONDUIT          268.0    1.7465    0.0130
  27449+           27449            27450            CONDUIT           27.0    6.0481    0.0130
  27450            27450            27451            CONDUIT           26.0    1.8059    0.0130
  27451            27451            93-90330         CONDUIT           95.9    5.0539    0.0130
  27456            27456            39081            CONDUIT          104.3    0.5848    0.0130
  27459            27459            39081            CONDUIT          138.0    2.9585    0.0130
  27461            27461            27459            CONDUIT          189.2    4.8481    0.0130
  27463            27463            27461            CONDUIT          200.3    4.9384    0.0130
  27465            27465            27463            CONDUIT          177.7    3.5419    0.0130
  27466+           27466            27467            CONDUIT          288.0    3.0709    0.0130
  27467+           27467            27468            CONDUIT          203.0    3.6033    0.0130
  27468+           27468            27470            CONDUIT           37.0    2.5414    0.0130
  27470+           27470            42375            CONDUIT           24.0    1.0001    0.0130
  27471+           27471            38062            CONDUIT          188.6    4.9536    0.0130
  27473            27473            93-90329         CONDUIT           53.0    0.4906    0.0130
  27475            27475            37111            CONDUIT          100.1   -0.0400    0.0130
  27480+           27480            38059            CONDUIT           53.3    1.3515    0.0130
  27481+           27481            27480            CONDUIT           87.0    1.2300    0.0130
  27482            27482            39074            CONDUIT          133.2    0.3379    0.0130
  27486            27486            93-90327         CONDUIT           43.4    0.4843    0.0130
  27488            27488            37107            CONDUIT           88.2    0.4649    0.0130
  27490            27490            39074            CONDUIT          273.6    4.8751    0.0130
  27492+           27492            27490            CONDUIT           45.0    8.5870    0.0100
  27493+           27493            27492            CONDUIT           87.0    7.2489    0.0100
  27500            27500            27349            CONDUIT          159.5    3.4005    0.0130
  27502            27502            37033            CONDUIT           57.9    0.5179    0.0240
  27502A           27502A           37034            CONDUIT           57.5    0.5220    0.0240
  27502A_2         27502_1          27502            CONDUIT           10.0    1.0001    0.0350
  27503            27503            27507            CONDUIT          308.0    0.5000    0.0130
  27504            27504            27503            CONDUIT          308.0    0.5000    0.0130
  27505            27505            36500            CONDUIT           19.6    3.5737    0.0130
  27507            27507            27510            CONDUIT          343.0    1.7087    0.0130
  27508            27508            27504            CONDUIT          177.2    0.4909    0.0130
  27509            27509            43757            CONDUIT          112.0    1.1872    0.0130
  27510            27510            36508            CONDUIT           43.4    7.4364    0.0130
  27526            27526            27527            CONDUIT          266.0    0.7707    0.0130
  27527            27527            27528            CONDUIT          291.9    1.1134    0.0130
  27528            27528            27529            CONDUIT          251.2    1.2420    0.0130
  27529            27529            27530            CONDUIT          268.0    1.0374    0.0130
  27530            27530            90169            CONDUIT          300.0    0.5433    0.0130
  27531            27531            27560            CONDUIT          184.6    2.0865    0.0130
  27532            27532            27508            CONDUIT           63.8    0.5799    0.0130
  27533            27533            27532            CONDUIT          138.0    0.5290    0.0130
  27534            27534            27533            CONDUIT          100.0    0.5100    0.0130
  27535            27535            27534            CONDUIT           32.9    1.2155    0.0130
  27536            27536            27535            CONDUIT          132.8    0.4143    0.0130
  27537            27537            27536            CONDUIT          146.3    0.4578    0.0130
  27538            27538            27537            CONDUIT          193.1    4.5669    0.0130
  27539            27539            27538            CONDUIT           65.4    3.4556    0.0130
  27540            27540            27539            CONDUIT          217.0    3.3376    0.0130
  27541            27541            27540            CONDUIT          140.2    3.0759    0.0130
  27542            27542            27541            CONDUIT          140.9    1.8105    0.0130
  27543            27543            27542            CONDUIT          138.7    1.6149    0.0130
  27544            27544            27543            CONDUIT          215.5    3.0504    0.0130
  27545            27545            27544            CONDUIT          175.5    7.1534    0.0130
  27546            27546            27545            CONDUIT          300.0    6.4903    0.0130
  27547            27547            27538            CONDUIT          216.7    8.7754    0.0130
  27549            27549            27547            CONDUIT          220.2    2.9075    0.0130
  27550            27550            27549            CONDUIT          237.3    1.6268    0.0130
  27551            27551            27550            CONDUIT           60.4    1.0267    0.0130
  27552            27552            27551            CONDUIT          235.3    2.9634    0.0130
  27554            27554            27555            CONDUIT          139.8    0.4219    0.0130
  27555            27555            43747            CONDUIT          149.1    1.6638    0.0130
  27557            27557            27555            CONDUIT          136.4    1.0847    0.0130
  27558            27558            27557            CONDUIT           99.4    4.7745    0.0130
  27559            27559            27558            CONDUIT          146.6    2.0396    0.0130
  27560            27560            27507            CONDUIT          164.7    2.0036    0.0130
  27563            27563            27564            CONDUIT          204.4    4.9125    0.0130
  27564            27564            27559            CONDUIT           92.1    3.9214    0.0130
  32145+           32145            27466            CONDUIT           63.0    3.1603    0.0130
  32146+           32146            32147            CONDUIT          112.0    3.0014    0.0130
  32147+           32147            32148            CONDUIT           43.0    1.4653    0.0130
  32148+           32148            32149            CONDUIT          175.0    1.6860    0.0130
  32149+           32149            32150            CONDUIT           44.0    2.0686    0.0130
  32150            32150            32151            CONDUIT           52.1    0.3837    0.0130
  32151            32151            35051            CONDUIT          119.5    4.9336    0.0130
  32153+           32153            35055            CONDUIT           66.0    1.3031    0.1300
  32154+           32154            39129            CONDUIT           38.0    2.2901    0.0130
  32220            32220            35090            CONDUIT           96.4    0.9125    0.0130
  35051            35051            93-90328         CONDUIT           45.5    2.8558    0.0130
  35052            35052            37004            CONDUIT           47.0    0.5318    0.0130
  35055+           35055            32154            CONDUIT           58.0    1.3449    0.0130
  35090            35090            93-50322         CONDUIT           20.1    0.6962    0.0130
  35236            35236            37105            CONDUIT           57.1    0.0876    0.0130
  35237            35237            37106            CONDUIT           73.0    2.5200    0.0130
  35251+           35251            35252            CONDUIT          150.6    0.2856    0.0130
  35252+           35252            37121            CONDUIT          267.0    5.3303    0.0130
  35253+           35253            35251            CONDUIT          173.7    0.3397    0.0130
  35254+           35254            35253            CONDUIT          187.8    0.2875    0.0130
  35260            35260            35261            CONDUIT          181.0    0.9227    0.0130
  35261            35261            09191560         CONDUIT           79.0    0.5823    0.0130
  35703            35703            09183508         CONDUIT          189.0    2.0639    0.0130
  36500            36500            37026            CONDUIT           58.1    1.2731    0.0130
  36504            36504            36505            CONDUIT           71.0    1.1691    0.0130
  36504_1          36504_1          36504            CONDUIT          314.0    2.0737    0.0900
  36505            36505            37035_8          CONDUIT           80.0    2.2005    0.0900
  36508            36508            27509            CONDUIT          245.3    3.9780    0.0130
  36519            36519            27131            CONDUIT            6.9    0.0145    0.0240
  36537+           36537            36537_2          CONDUIT           16.3   39.4775    0.0100
  36537_2          36537_2          37097_2          CONDUIT          461.3    2.1682    0.0350
  37004            37004            37195_2          CONDUIT          219.1    1.5978    0.0400
  37026            37026            37026_1          CONDUIT           51.0    1.4904    0.0900
  37026_1          37026_1          37026_2          CONDUIT           83.0    1.0844    0.0900
  37026_2          37026_2          27502_1          CONDUIT          188.0    1.0639    0.0900
  37031            37031            37097_4          CONDUIT           86.3    4.1519    0.0350
  37033            37033            43155            CONDUIT            5.0   25.5997    0.0350
  37034            37034            43155            CONDUIT           20.9    5.9492    0.0350
  37035            37035            36508            CONDUIT           92.5    3.8419    0.0130
  37035_1          37035_1          37035            CONDUIT           65.0    0.4615    0.0900
  37035_2          37035_2          37035_1          CONDUIT           95.0    1.0527    0.0900
  37035_3          37035_3          37035_2          CONDUIT          135.5    2.6282    0.0900
  37035_4          37035_4          37035_3          CONDUIT           10.0    3.0014    0.0240
  37035_4OVERFLOW  37035_4          37035_3          CONDUIT           10.0    3.0014    0.0900
  37035_5          37035_5          37035_4          CONDUIT          125.0    2.2726    0.0900
  37035_6          37035_6          37035_5          CONDUIT          145.0    1.8624    0.0900
  37035_7          37035_7          37035_6          CONDUIT          153.0    1.7650    0.0900
  37035_8          37035_8          37035_7          CONDUIT          128.0    2.4226    0.0900
  37036            37036            37036_2          CONDUIT         1592.9    2.2197    0.0350
  37036_2          37036_2          37036_3          CONDUIT           96.4    4.1530    0.0350
  37036_3          37036_3          36504_1          CONDUIT          186.0    1.2904    0.0900
  37037            37037            37036            CONDUIT          146.0    2.1717    0.0130
  37049            37049            37200            CONDUIT          212.9    0.0610    0.0350
  37050            37050            27124            CONDUIT           20.2    0.1487    0.0130
  37096            37096            37097_2          CONDUIT           46.8    0.7264    0.0350
  37097            37097            37097_2          CONDUIT          150.2    0.8990    0.0350
  37097_2          37097_2          37097_4          CONDUIT          289.9    2.2428    0.0350
  37097_4          37097_4          37097_5          CONDUIT          498.2    1.9474    0.0350
  37097_5          37097_5          37097_6          CONDUIT          139.6    1.2900    0.0350
  37097_6          37097_6          95624            CONDUIT          387.6    1.5481    0.0350
  37098            37098            37097            CONDUIT          161.0    1.5588    0.0130
  37099            37099            37098            CONDUIT          256.3    3.1655    0.0350
  37100            37100            37099            CONDUIT           77.6    1.1850    0.0130
  37105            37105            37117_2          CONDUIT           15.8    1.3301    0.0350
  37106            37106            37106_2          CONDUIT          272.9    2.5288    0.0350
  37106_2          37106_2          37111_2          CONDUIT          315.2    3.8104    0.0350
  37107            37107            37106_2          CONDUIT           30.3    9.2930    0.0350
  37109            37109            37111            CONDUIT          238.8    2.3036    0.0350
  37110            37110            37109            CONDUIT           62.5    2.2398    0.0130
  37111            37111            37111_2          CONDUIT          360.9    1.3857    0.0350
  37111_2          37111_2          37111_20         CONDUIT           33.2    1.1129    0.0350
  37111_20         37111_20         37117            CONDUIT          322.0    1.1273    0.0350
  37113            37113            37114            CONDUIT           65.3    2.8802    0.0130
  37114            37114            37111_20         CONDUIT          136.2    3.7400    0.0350
  37117            37117            37117_2          CONDUIT          175.5    1.1397    0.0350
  37117_2          37117_2          37100            CONDUIT           24.5    0.4484    0.0350
  37119            37119            37110            CONDUIT          353.5    0.5941    0.0350
  37120            37120            44484            CONDUIT           53.9    5.1235    0.0240
  37121+           37121            95626            CONDUIT           52.5    5.0972    0.0130
  37195            37195            37195_2          CONDUIT          936.7    0.3352    0.0350
  37195_2          37195_2          44483            CONDUIT          134.0    0.6715    0.0350
  37196            37196            37195            CONDUIT          123.9    0.2906    0.0130
  37197            37197            37196            CONDUIT           44.9    1.2030    0.0350
  37200            37200            37197            CONDUIT          255.8    0.0860    0.0130
  38059            38059            27341            CONDUIT          127.8    4.5420    0.0130
  38062+           38062            27473            CONDUIT          378.9    6.2599    0.0130
  38246            38246            32151            CONDUIT          122.0    5.0482    0.0130
  38258            38258            27339            CONDUIT          215.3    4.8370    0.0130
  39052            39052            27420            CONDUIT           33.5    6.9224    0.0130
  39058            39058            37096            CONDUIT           38.8    3.1975    0.0130
  39073            39073            27486            CONDUIT          160.2    0.5182    0.0130
  39074            39074            39073            CONDUIT           26.2    0.3440    0.0130
  39077            39077            27473            CONDUIT          142.0    0.6269    0.0130
  39079            39079            39077            CONDUIT           25.7    0.4667    0.0130
  39081            39081            93-90329         CONDUIT           74.6    0.8181    0.0130
  39129            39129            38246            CONDUIT          119.1    2.6040    0.0130
  40013            40013            27127            CONDUIT           16.8    0.8940    0.0130
  40035            40035            27132            CONDUIT          280.7    1.5711    0.0130
  40135            40135            27158            CONDUIT           53.1    0.3768    0.0130
  42373            42373            37117            CONDUIT           73.1    2.8055    0.0130
  42375+           42375            37113            CONDUIT          275.6    5.1587    0.0350
  43154            43154            43154_2          CONDUIT          378.8    0.1742    0.0350
  43155            43155            43154            CONDUIT           40.2    0.0025    0.0130
  43747            43747            93-50325         CONDUIT           19.1    1.4175    0.0130
  43748            43748            37036_3          CONDUIT           95.9    6.4786    0.0350
  43749            43749            43748            CONDUIT          118.0    2.2972    0.0130
  43757            43757            36500            CONDUIT           55.4    1.2097    0.0130
  44482            44482            44482_2          CONDUIT          610.6    1.7689    0.0350
  44482_2          44482_2          44482_3          CONDUIT          665.4    1.8247    0.0350
  44482_3          44482_3          37037            CONDUIT          506.2    1.4501    0.0350
  44483            44483            44482            CONDUIT          210.0    0.3810    0.0130
  44484            44484            37119            CONDUIT          256.2    4.0660    0.0240
  44486+           44486            36537            CONDUIT           10.8    9.3341    0.0130
  50000209         50000209         37049            CONDUIT          125.6    0.8836    0.0130
  90169            90169            27505            CONDUIT          358.0    1.7880    0.0130
  93-50321OVERFLOW 93-50321         37096            CONDUIT           40.0   11.0672    0.0400
  93-50324OVERFLOW 93-50324         95041            CONDUIT           30.0    9.8474    0.0350
  93-50439OVERFLOW 93-50439         09191582         CONDUIT           10.0 -159.3325    0.0130
  93-90328OVERFLOW 93-90328         37195_2          CONDUIT          290.0    2.9323    0.0350
  95008            95008            09182501         CONDUIT          127.0    3.6337    0.0130
  95039            95039            95041            CONDUIT           34.4    0.4076    0.0130
  95041            95041            44482_3          CONDUIT           40.7    0.0025    0.0300
  95602            93-50326         27533            CONDUIT           82.4    0.0012    0.0130
  95624            95624            95625            CONDUIT           18.0    2.7789    0.0130
  95625            95625            37036_2          CONDUIT          279.0    2.6888    0.0350
  95626            95626            37120            CONDUIT          117.5    5.0874    0.0130
  NEWPORTRDOVERFLOW 36504            36505            CONDUIT           68.0    1.2207    0.0110
  27502_1          27502_1          27502A           CONDUIT           10.0    1.0001    0.0350
  93-49710RISERTOP 93-49710         95626            WEIR        
  93-50321RISERTOP 93-50321         39058            WEIR        
  93-50322RISERTOP 93-50322         27410            WEIR        
  93-50323OVERFLOW 93-50323         27403            WEIR        
  93-50323RISERTOP 93-50323         27402            WEIR        
  93-50324RISERTOP 93-50324         95039            WEIR        
  93-50325RISERTOP 93-50325         43749            WEIR        
  93-50439RISERTOP 93-50439         09191580         WEIR        
  93-90327RISERTOP 93-90327         27488            WEIR        
  93-90328RISERTOP 93-90328         35052            WEIR        
  93-90329RISERTOP 93-90329         27475            WEIR        
  93-90330RISERTOP 93-90330         42373            WEIR        
  93-90331RISERTOP 93-90331         35236            WEIR        
  93-50321OUTLET   93-50321         39058            OUTLET      
  93-50322OUTLET   93-50322         27410            OUTLET      
  93-50323OUTLET   93-50323         27402            OUTLET      
  93-50324OUTLET   93-50324         95039            OUTLET      
  93-50439OUTLET   93-50439         09191580         OUTLET      
  93-90327OUTLET   93-90327         27488            OUTLET      
  93-90328OUTLET   93-90328         35052            OUTLET      
  93-90329OUTLET   93-90329         27475            OUTLET      
  93-90330OUTLET   93-90330         42373            OUTLET      
  93-90331OUTLET   93-90331         35236            OUTLET      
  
  
  *********************
  Cross Section Summary
  *********************
                                        Full     Full     Hyd.     Max.   No. of     Full
  Conduit          Shape               Depth     Area     Rad.    Width  Barrels     Flow
  ---------------------------------------------------------------------------------------
  09181565         CIRCULAR             1.00     0.79     0.25     1.00        1     5.96
  09182501         CIRCULAR             1.00     0.79     0.25     1.00        1     3.74
  09183501         CIRCULAR             1.00     0.79     0.25     1.00        1     7.40
  09183504         CIRCULAR             1.00     0.79     0.25     1.00        1     5.97
  09183505         CIRCULAR             1.00     0.79     0.25     1.00        1     6.98
  09183508         CIRCULAR             1.25     1.23     0.31     1.25        1     9.70
  09183509         CIRCULAR             1.25     1.23     0.31     1.25        1    14.06
  09183517         CIRCULAR             1.00     0.79     0.25     1.00        1     4.25
  09183518         CIRCULAR             1.00     0.79     0.25     1.00        1     3.71
  09184501         CIRCULAR             1.25     1.23     0.31     1.25        1     6.24
  09184502         CIRCULAR             2.00     3.14     0.50     2.00        1    15.85
  09184503         CIRCULAR             1.25     1.23     0.31     1.25        1     4.54
  09184504         CIRCULAR             2.00     3.14     0.50     2.00        1    22.60
  09184507         CIRCULAR             2.00     3.14     0.50     2.00        1    14.66
  09184509         CIRCULAR             1.00     0.79     0.25     1.00        1     2.57
  09184510         CIRCULAR             1.00     0.79     0.25     1.00        1     0.41
  09184511         CIRCULAR             1.00     0.79     0.25     1.00        1     1.32
  09184515         CIRCULAR             1.00     0.79     0.25     1.00        1     3.40
  09184516         CIRCULAR             1.00     0.79     0.25     1.00        1     2.78
  09184518         CIRCULAR             1.00     0.79     0.25     1.00        1     5.39
  09184524         CIRCULAR             1.25     1.23     0.31     1.25        1    12.28
  09184525         CIRCULAR             1.25     1.23     0.31     1.25        1     9.47
  09191559         CIRCULAR             1.25     1.23     0.31     1.25        1     3.65
  09191560         CIRCULAR             1.25     1.23     0.31     1.25        1    10.22
  09191561         CIRCULAR             1.50     1.77     0.38     1.50        1     5.38
  09191564         CIRCULAR             2.00     3.14     0.50     2.00        1    18.05
  09191566         CIRCULAR             2.50     4.91     0.62     2.50        1    28.34
  09191569         CIRCULAR             2.50     4.91     0.62     2.50        1    21.30
  09191570         CIRCULAR             2.50     4.91     0.62     2.50        1    28.66
  09191571         CIRCULAR             2.50     4.91     0.62     2.50        1    22.24
  09191572         CIRCULAR             2.50     4.91     0.62     2.50        1    23.79
  09191573         CIRCULAR             2.50     4.91     0.62     2.50        1    21.06
  09191574         CIRCULAR             2.50     4.91     0.62     2.50        1    18.60
  09191575         CIRCULAR             2.50     4.91     0.62     2.50        1    19.75
  09191576         CIRCULAR             2.50     4.91     0.62     2.50        1    20.99
  09191577         CIRCULAR             2.50     4.91     0.62     2.50        1    19.38
  09191578         CIRCULAR             2.50     4.91     0.62     2.50        1    20.70
  09191579         RECT_OPEN           20.00   400.00     6.67    20.00        1 168125.07
  09191580         CIRCULAR             1.00     0.79     0.25     1.00        1     3.07
  09191581         CIRCULAR             1.00     0.79     0.25     1.00        1     2.02
  09191582         CIRCULAR            24.00   452.39     6.00    24.00        1 44466.79
  09191583         DUMMY                0.00     0.00     0.00     0.00        1     0.00
  09191584         CIRCULAR             1.00     0.79     0.25     1.00        1     4.90
  09192508         CIRCULAR             2.00     3.14     0.50     2.00        1    14.55
  09192528         CIRCULAR             3.00     7.07     0.75     3.00        1    32.88
  09192910         CIRCULAR             1.00     0.79     0.25     1.00        1     3.41
  27124            TRAPEZOIDAL          6.00   361.08     5.01    60.36        1  3276.93
  27125            HORIZ_ELLIPSE        4.00    20.31     1.22     6.33        1   120.89
  27127            HORIZ_ELLIPSE        4.00    20.31     1.22     6.33        1   118.27
  27128            HORIZ_ELLIPSE        3.17    12.73     0.97     5.00        1    63.04
  27129            CIRCULAR             3.00     7.07     0.75     3.00        1    59.59
  27131            CIRCULAR             3.00     7.07     0.75     3.00        1    73.57
  27132            CIRCULAR             3.00     7.07     0.75     3.00        1    67.77
  27133            CIRCULAR             3.00     7.07     0.75     3.00        1    63.50
  27134            CIRCULAR             3.00     7.07     0.75     3.00        1    40.68
  27135            CIRCULAR             3.00     7.07     0.75     3.00        1    39.64
  27136            CIRCULAR             3.00     7.07     0.75     3.00        1    40.74
  27138            CIRCULAR             3.00     7.07     0.75     3.00        1    38.94
  27139            CIRCULAR             3.00     7.07     0.75     3.00        1    40.94
  27140            CIRCULAR             3.00     7.07     0.75     3.00        1   106.09
  27149            CIRCULAR             1.00     0.79     0.25     1.00        1     3.26
  27150            CIRCULAR             1.25     1.23     0.31     1.25        1     6.44
  27151            CIRCULAR             2.50     4.91     0.62     2.50        1    31.86
  27152            CIRCULAR             2.50     4.91     0.62     2.50        1    29.66
  27153            CIRCULAR             2.00     3.14     0.50     2.00        1    13.98
  27154            CIRCULAR             1.75     2.41     0.44     1.75        1    11.50
  27155            CIRCULAR             1.75     2.41     0.44     1.75        1    11.23
  27156            CIRCULAR             1.75     2.41     0.44     1.75        1    11.23
  27157            CIRCULAR             1.75     2.41     0.44     1.75        1    10.03
  27158            CIRCULAR             1.75     2.41     0.44     1.75        1     9.99
  27159            CIRCULAR             2.50     4.91     0.62     2.50        1    38.29
  27160            CIRCULAR             1.00     0.79     0.25     1.00        1     4.05
  27161            CIRCULAR             1.00     0.79     0.25     1.00        1     2.77
  27162            CIRCULAR             1.00     0.79     0.25     1.00        1     2.78
  27163            CIRCULAR             1.00     0.79     0.25     1.00        1     5.20
  27164            CIRCULAR             1.25     1.23     0.31     1.25        1     5.75
  27165            CIRCULAR             1.00     0.79     0.25     1.00        1     4.09
  27166            CIRCULAR             1.00     0.79     0.25     1.00        1     7.38
  27167            CIRCULAR             1.00     0.79     0.25     1.00        1     7.25
  27168            CIRCULAR             1.25     1.23     0.31     1.25        1     6.49
  27169            CIRCULAR             1.00     0.79     0.25     1.00        1     3.84
  27170            CIRCULAR             1.25     1.23     0.31     1.25        1     6.19
  27171            CIRCULAR             1.50     1.77     0.38     1.50        1    11.52
  27172            CIRCULAR             1.50     1.77     0.38     1.50        1    11.11
  27173            CIRCULAR             1.00     0.79     0.25     1.00        1     4.13
  27174            CIRCULAR             1.00     0.79     0.25     1.00        1     4.08
  27175            CIRCULAR             1.00     0.79     0.25     1.00        1     5.61
  27176            CIRCULAR             1.50     1.77     0.38     1.50        1    19.07
  27177            CIRCULAR             1.00     0.79     0.25     1.00        1     3.59
  27178            CIRCULAR             1.00     0.79     0.25     1.00        1     3.57
  27187            CIRCULAR             0.67     0.35     0.17     0.67        1     1.92
  27188            CIRCULAR             1.00     0.79     0.25     1.00        1     3.56
  27189            CIRCULAR             1.00     0.79     0.25     1.00        1     4.26
  27190            CIRCULAR             1.00     0.79     0.25     1.00        1     3.48
  27191            CIRCULAR             1.00     0.79     0.25     1.00        1     4.63
  27192            CIRCULAR             0.67     0.35     0.17     0.67        1     1.43
  27193            CIRCULAR             1.00     0.79     0.25     1.00        1     5.05
  27194            CIRCULAR             1.00     0.79     0.25     1.00        1     2.98
  27195            CIRCULAR             1.00     0.79     0.25     1.00        1     2.96
  27196            CIRCULAR             1.25     1.23     0.31     1.25        1     7.94
  27197+           CIRCULAR             1.00     0.79     0.25     1.00        1     3.08
  27200            CIRCULAR             2.00     3.14     0.50     2.00        1    34.17
  27201            CIRCULAR             2.00     3.14     0.50     2.00        1    41.16
  27202            CIRCULAR             2.00     3.14     0.50     2.00        1    16.10
  27203            CIRCULAR             2.50     4.91     0.62     2.50        1    22.21
  27204            CIRCULAR             0.67     0.35     0.17     0.67        1     0.63
  27205            CIRCULAR             2.50     4.91     0.62     2.50        1    18.52
  27206            CIRCULAR             0.67     0.35     0.17     0.67        1     2.70
  27207            CIRCULAR             2.50     4.91     0.62     2.50        1    18.23
  27208            CIRCULAR             0.67     0.35     0.17     0.67        1     2.49
  27209            CIRCULAR             2.00     3.14     0.50     2.00        1    10.28
  27210            CIRCULAR             1.00     0.79     0.25     1.00        1     1.68
  27211            CIRCULAR             1.00     0.79     0.25     1.00        1     2.95
  27212            CIRCULAR             1.00     0.79     0.25     1.00        1     3.00
  27213            CIRCULAR             1.00     0.79     0.25     1.00        1     2.52
  27230            CIRCULAR             1.00     0.79     0.25     1.00        1     4.74
  27231            CIRCULAR             1.00     0.79     0.25     1.00        1     5.77
  27339            CIRCULAR             1.00     0.79     0.25     1.00        1     7.74
  27341            CIRCULAR             1.00     0.79     0.25     1.00        1     7.58
  27349            CIRCULAR             1.25     1.23     0.31     1.25        1    14.70
  27350            CIRCULAR             1.25     1.23     0.31     1.25        1     8.33
  27383            CIRCULAR             1.00     0.79     0.25     1.00        1     4.17
  27393            CIRCULAR             1.00     0.79     0.25     1.00        1     0.16
  27394            CIRCULAR             1.00     0.79     0.25     1.00        1     3.20
  27396            CIRCULAR             2.00     3.14     0.50     2.00        1    49.28
  27398            CIRCULAR             2.00     3.14     0.50     2.00        1    73.61
  27402            CIRCULAR             1.50     1.77     0.38     1.50        1    17.03
  27403            CIRCULAR             1.50     1.77     0.38     1.50        1     9.85
  27404            RECT_OPEN            1.50    15.00     1.15    10.00        1   245.00
  27406            CIRCULAR             1.00     0.79     0.25     1.00        1     5.19
  27407            RECT_OPEN            1.00    10.00     0.83    10.00        1   111.62
  27410            CIRCULAR             1.00     0.79     0.25     1.00        1     8.76
  27417            CIRCULAR             1.00     0.79     0.25     1.00        1     3.37
  27419            CIRCULAR             1.25     1.23     0.31     1.25        1     4.43
  27420            CIRCULAR             1.50     1.77     0.38     1.50        1     0.63
  27421            CIRCULAR             1.50     1.77     0.38     1.50        1    14.71
  27423            CIRCULAR             1.25     1.23     0.31     1.25        1    11.35
  27424            CIRCULAR             1.00     0.79     0.25     1.00        1     5.52
  27425            RECT_OPEN            4.00   240.00     3.53    60.00        1  3854.95
  27441            CIRCULAR             1.00     0.79     0.25     1.00        1     2.69
  27442            CIRCULAR             1.00     0.79     0.25     1.00        1     2.68
  27446+           CIRCULAR             0.67     0.35     0.17     0.67        1     1.29
  27447+           CIRCULAR             0.67     0.35     0.17     0.67        1     1.28
  27448+           CIRCULAR             1.00     0.79     0.25     1.00        1     4.71
  27449+           CIRCULAR             1.00     0.79     0.25     1.00        1     8.76
  27450            CIRCULAR             1.00     0.79     0.25     1.00        1     4.79
  27451            CIRCULAR             1.00     0.79     0.25     1.00        1     8.01
  27456            CIRCULAR             1.00     0.79     0.25     1.00        1     2.72
  27459            CIRCULAR             1.00     0.79     0.25     1.00        1     6.13
[...]
  27558                   1.20   1.00  0.00  0.00  0.00  0.00  0.00  0.00  0.00  0.00
  27559                   1.00   1.00  0.00  0.00  0.00  0.00  0.00  0.00  0.00  0.00
  27560                   1.00   1.00  0.00  0.00  0.00  0.00  0.00  0.00  0.00  0.00
  27563                   1.00   1.00  0.00  0.00  0.00  0.00  0.00  0.00  0.00  0.00
  27564                   1.00   1.00  0.00  0.00  0.00  0.00  0.00  0.00  0.00  0.00
  32145+                  1.00   1.00  0.00  0.00  0.00  0.00  0.00  0.00  0.00  0.00
  32146+                  1.00   1.00  0.00  0.00  0.00  0.00  0.00  0.00  0.00  0.00
  32147+                  1.30   1.00  0.00  0.00  0.00  0.00  0.00  0.00  0.00  0.00
  32148+                  1.00   1.00  0.00  0.00  0.00  0.00  0.00  0.00  0.00  0.00
  32149+                  1.39   1.00  0.00  0.00  0.00  0.00  0.00  0.00  0.00  0.00
  32150                   1.00   1.00  0.00  0.00  0.00  0.00  0.00  0.00  0.00  0.00
  32151                   1.00   0.16  0.00  0.00  0.00  0.00  0.00  0.84  0.00  0.00
  32153+                  1.00   1.00  0.00  0.00  0.00  0.00  0.00  0.00  0.00  0.00
  32154+                  1.30   1.00  0.00  0.00  0.00  0.00  0.00  0.00  0.00  0.00
  32220                   1.00   0.16  0.01  0.00  0.19  0.00  0.00  0.64  0.21  0.00
  35051                   1.67   0.16  0.00  0.00  0.03  0.00  0.00  0.81  0.03  0.00
  35052                   1.00   0.16  0.00  0.00  0.42  0.42  0.00  0.00  0.00  0.00
  35055+                  1.00   1.00  0.00  0.00  0.00  0.00  0.00  0.00  0.00  0.00
  35090                   2.35   0.16  0.00  0.00  0.22  0.00  0.00  0.62  0.56  0.00
  35236                   1.00   0.16  0.00  0.00  0.73  0.11  0.00  0.00  0.00  0.00
  35237                   1.70   1.00  0.00  0.00  0.00  0.00  0.00  0.00  0.00  0.00
  35251+                  1.00   0.16  0.00  0.00  0.00  0.00  0.00  0.84  0.00  0.00
  35252+                  1.00   0.16  0.00  0.00  0.00  0.00  0.00  0.84  0.00  0.00
  35253+                  1.00   0.16  0.00  0.00  0.02  0.00  0.00  0.82  0.00  0.00
  35254+                  1.00   0.16  0.00  0.00  0.84  0.00  0.00  0.00  0.68  0.00
  35260                   1.00   1.00  0.00  0.00  0.00  0.00  0.00  0.00  0.00  0.00
  35261                   1.00   1.00  0.00  0.00  0.00  0.00  0.00  0.00  0.00  0.00
  35703                   1.00   1.00  0.00  0.00  0.00  0.00  0.00  0.00  0.00  0.00
  36500                   2.52   0.16  0.00  0.00  0.02  0.82  0.00  0.00  0.76  0.00
  36504                   1.80   0.16  0.00  0.00  0.84  0.00  0.00  0.00  0.00  0.81
  36504_1                 1.00   0.16  0.00  0.00  0.84  0.00  0.00  0.00  0.06  0.00
  36505                   1.19   0.16  0.00  0.00  0.83  0.01  0.00  0.00  0.82  0.00
  36508                   1.00   0.16  0.00  0.00  0.00  0.84  0.00  0.00  0.84  0.00
  36519                   8.21   0.16  0.00  0.00  0.84  0.00  0.00  0.00  0.00  0.00
  36537+                 72.21   1.00  0.00  0.00  0.00  0.00  0.00  0.00  0.00  0.00
  36537_2                 1.00   0.16  0.84  0.00  0.00  0.00  0.00  0.00  0.00  0.00
  37004                   1.14   0.16  0.33  0.00  0.51  0.00  0.00  0.00  0.83  0.00
  37026                   2.40   0.16  0.00  0.00  0.84  0.00  0.00  0.00  0.81  0.00
  37026_1                 2.53   0.16  0.00  0.00  0.84  0.00  0.00  0.00  0.15  0.00
  37026_2                 1.00   0.17  0.00  0.00  0.83  0.00  0.00  0.00  0.80  0.00
  37031                   1.00   0.16  0.53  0.00  0.31  0.00  0.00  0.00  0.82  0.00
  37033                  61.96   0.16  0.01  0.00  0.83  0.00  0.00  0.00  0.79  0.00
  37034                   8.61   0.16  0.01  0.00  0.83  0.00  0.00  0.00  0.76  0.00
  37035                   2.22   0.16  0.00  0.00  0.03  0.81  0.00  0.00  0.14  0.00
  37035_1                 1.02   0.16  0.00  0.00  0.84  0.00  0.00  0.00  0.00  0.00
  37035_2                 1.00   0.16  0.02  0.00  0.82  0.00  0.00  0.00  0.00  0.00
  37035_3                 1.00   0.18  0.00  0.00  0.82  0.00  0.00  0.00  0.81  0.00
  37035_4                13.39   0.18  0.00  0.00  0.82  0.00  0.00  0.00  0.61  0.00
  37035_4OVERFLOW        18.35   1.00  0.00  0.00  0.00  0.00  0.00  0.00  0.00  0.00
  37035_5                 1.37   0.18  0.00  0.00  0.03  0.00  0.00  0.79  0.01  0.00
  37035_6                 1.00   0.17  0.00  0.00  0.83  0.00  0.00  0.00  0.82  0.00
  37035_7                 1.00   0.17  0.00  0.00  0.83  0.00  0.00  0.00  0.00  0.00
  37035_8                 1.39   0.16  0.00  0.00  0.84  0.00  0.00  0.00  0.82  0.00
  37036                   1.00   0.16  0.00  0.00  0.82  0.02  0.00  0.00  0.79  0.00
  37036_2                 1.80   0.18  0.00  0.00  0.81  0.01  0.00  0.00  0.80  0.00
  37036_3                 1.00   0.16  0.03  0.00  0.81  0.00  0.00  0.00  0.80  0.00
  37037                   1.00   0.16  0.00  0.00  0.67  0.16  0.00  0.00  0.82  0.00
  37049                   1.00   0.16  0.00  0.00  0.84  0.00  0.00  0.00  0.31  0.00
  37050                   4.06   0.46  0.01  0.00  0.34  0.19  0.00  0.00  0.00  0.00
  37096                   1.35   0.16  0.02  0.00  0.82  0.00  0.00  0.00  0.81  0.00
  37097                   1.00   0.16  0.00  0.00  0.84  0.00  0.00  0.00  0.03  0.00
  37097_2                 1.00   0.16  0.00  0.00  0.84  0.00  0.00  0.00  0.82  0.00
  37097_4                 1.00   0.16  0.00  0.00  0.84  0.00  0.00  0.00  0.82  0.00
  37097_5                 1.00   0.17  0.00  0.00  0.83  0.00  0.00  0.00  0.37  0.00
  37097_6                 1.00   0.17  0.00  0.00  0.83  0.00  0.00  0.00  0.82  0.00
  37098                   1.00   0.16  0.00  0.00  0.01  0.83  0.00  0.00  0.00  0.00
  37099                   1.00   0.16  0.00  0.00  0.84  0.00  0.00  0.00  0.84  0.00
  37100                   1.44   0.16  0.01  0.00  0.01  0.82  0.00  0.00  0.00  0.27
  37105                  11.94   0.16  0.50  0.00  0.33  0.00  0.00  0.00  0.70  0.00
  37106                   1.00   0.50  0.50  0.00  0.00  0.00  0.00  0.00  0.00  0.00
  37106_2                 1.00   0.16  0.34  0.00  0.50  0.00  0.00  0.00  0.83  0.00
  37107                   5.78   0.50  0.07  0.00  0.40  0.02  0.00  0.00  0.78  0.00
  37109                   1.00   0.16  0.00  0.00  0.84  0.00  0.00  0.00  0.83  0.00
  37110                   2.28   0.16  0.00  0.00  0.01  0.83  0.00  0.00  0.01  0.00
  37111                   1.00   0.16  0.00  0.00  0.84  0.00  0.00  0.00  0.82  0.00
  37111_2                 2.34   0.16  0.00  0.00  0.84  0.00  0.00  0.00  0.06  0.00
  37111_20                1.00   0.16  0.01  0.00  0.83  0.00  0.00  0.00  0.63  0.00
  37113                   1.17   1.00  0.00  0.00  0.00  0.00  0.00  0.00  0.00  0.00
  37114                   1.00   0.17  0.83  0.00  0.00  0.00  0.00  0.00  0.00  0.00
  37117                   1.00   0.16  0.00  0.00  0.84  0.00  0.00  0.00  0.42  0.00
  37117_2                 3.49   0.16  0.00  0.00  0.84  0.00  0.00  0.00  0.43  0.00
  37119                   1.00   0.16  0.00  0.00  0.84  0.00  0.00  0.00  0.83  0.00
  37120                   1.78   0.16  0.00  0.00  0.00  0.84  0.00  0.00  0.83  0.00
  37121+                  1.36   0.16  0.00  0.00  0.00  0.84  0.00  0.00  0.23  0.00
  37195                   1.00   0.16  0.00  0.00  0.84  0.00  0.00  0.00  0.77  0.00
  37195_2                 1.00   0.16  0.00  0.00  0.83  0.01  0.00  0.00  0.00  0.00
  37196                   1.00   0.16  0.00  0.00  0.84  0.00  0.00  0.00  0.64  0.00
  37197                   1.76   0.16  0.01  0.00  0.83  0.00  0.00  0.00  0.40  0.00
  37200                   1.00   0.16  0.00  0.00  0.84  0.00  0.00  0.00  0.00  0.00
  38059                   1.00   1.00  0.00  0.00  0.00  0.00  0.00  0.00  0.00  0.00
  38062+                  1.00   0.66  0.34  0.00  0.00  0.00  0.00  0.00  0.00  0.00
  38246                   1.00   1.00  0.00  0.00  0.00  0.00  0.00  0.00  0.00  0.00
  38258                   1.00   0.99  0.01  0.00  0.00  0.00  0.00  0.00  0.00  0.00
  39052                   3.02   1.00  0.00  0.00  0.00  0.00  0.00  0.00  0.00  0.00
  39058                   2.69   0.18  0.54  0.00  0.00  0.28  0.00  0.00  0.01  0.00
  39073                   1.00   0.16  0.00  0.00  0.10  0.00  0.00  0.74  0.05  0.00
  39074                   1.80   0.16  0.00  0.00  0.02  0.00  0.00  0.82  0.00  0.00
  39077                   1.00   0.68  0.05  0.00  0.24  0.00  0.00  0.03  0.62  0.00
  39079                   2.14   0.75  0.01  0.00  0.18  0.00  0.00  0.07  0.60  0.00
  39081                   1.00   0.16  0.03  0.00  0.34  0.00  0.00  0.47  0.14  0.00
  39129                   1.00   1.00  0.00  0.00  0.00  0.00  0.00  0.00  0.00  0.00
  40013                   5.03   0.16  0.00  0.00  0.00  0.00  0.00  0.83  0.00  0.00
  40035                   1.00   0.16  0.00  0.00  0.00  0.00  0.00  0.84  0.00  0.00
  40135                   1.09   0.26  0.00  0.00  0.74  0.00  0.00  0.00  0.74  0.00
  42373                   1.00   0.16  0.00  0.00  0.00  0.00  0.00  0.84  0.00  0.00
  42375+                  1.00   1.00  0.00  0.00  0.00  0.00  0.00  0.00  0.00  0.00
  43154                   1.00   0.16  0.00  0.00  0.84  0.00  0.00  0.00  0.00  0.00
  43155                   1.00   0.16  0.00  0.00  0.84  0.00  0.00  0.00  0.00  0.00
  43747                   4.97   0.16  0.00  0.00  0.81  0.00  0.00  0.03  0.00  0.00
  43748                   1.00   0.19  0.40  0.00  0.41  0.00  0.00  0.00  0.79  0.00
  43749                   1.00   0.21  0.00  0.00  0.57  0.23  0.00  0.00  0.00  0.00
  43757                   2.60   0.16  0.00  0.00  0.01  0.83  0.00  0.00  0.18  0.00
  44482                   1.00   0.16  0.00  0.00  0.00  0.84  0.00  0.00  0.00  0.00
  44482_2                 1.00   0.16  0.01  0.00  0.83  0.00  0.00  0.00  0.82  0.00
  44482_3                 1.00   0.16  0.00  0.00  0.84  0.00  0.00  0.00  0.80  0.00
  44483                   1.00   0.16  0.02  0.00  0.82  0.00  0.00  0.00  0.79  0.00
  44484                   1.00   0.16  0.00  0.00  0.00  0.00  0.00  0.84  0.00  0.00
  44486+                  9.08   1.00  0.00  0.00  0.00  0.00  0.00  0.00  0.00  0.00
  50000209                1.00   0.16  0.03  0.00  0.79  0.02  0.00  0.00  0.79  0.00
  90169                   1.00   0.16  0.03  0.00  0.61  0.20  0.00  0.00  0.62  0.00
  93-50321OVERFLOW        2.96   0.18  0.82  0.00  0.00  0.00  0.00  0.00  0.00  0.00
  93-50324OVERFLOW        4.15   0.17  0.83  0.00  0.00  0.00  0.00  0.00  0.00  0.00
  93-50439OVERFLOW      268.24   0.17  0.83  0.00  0.00  0.00  0.00  0.00  0.00  0.00
  93-90328OVERFLOW        1.09   0.16  0.84  0.00  0.00  0.00  0.00  0.00  0.00  0.00
  95008                   1.00   1.00  0.00  0.00  0.00  0.00  0.00  0.00  0.00  0.00
  95039                   1.25   0.17  0.03  0.00  0.19  0.62  0.00  0.00  0.13  0.00
  95041                   2.32   0.16  0.00  0.00  0.84  0.00  0.00  0.00  0.00  0.00
  95602                   1.00   0.00  0.00  0.00  1.00  0.00  0.00  0.00  0.00  0.00
  95624                   8.45   0.18  0.00  0.00  0.14  0.68  0.00  0.00  0.00  0.00
  95625                   1.00   0.18  0.00  0.00  0.82  0.00  0.00  0.00  0.81  0.00
  95626                   1.18   0.16  0.00  0.00  0.00  0.84  0.00  0.00  0.84  0.00
  NEWPORTRDOVERFLOW       9.30   1.00  0.00  0.00  0.00  0.00  0.00  0.00  0.00  0.00
  27502_1                16.30   0.17  0.00  0.00  0.83  0.00  0.00  0.00  0.00  0.00
  
  
  *************************
  Conduit Surcharge Summary
  *************************
  
  ----------------------------------------------------------------------------
                                                           Hours        Hours 
                         --------- Hours Full --------   Above Full   Capacity
  Conduit                Both Ends  Upstream  Dnstream   Normal Flow   Limited
  ----------------------------------------------------------------------------
  09184502                    0.01      0.01      0.12      0.01         0.01
  09184504                    0.12      0.12      0.26      0.01         0.01
  09184507                    0.01      0.32      0.01      0.48         0.01
  09184509                    0.01      0.01      0.14      0.01         0.01
  09184510                    0.01      0.01      0.01      0.05         0.01
  09192508                    0.30      0.43      0.31      0.54         0.28
  09192528                    0.63      0.65      0.63      0.89         0.63
  27125                       0.01      0.01      0.01      0.26         0.01
  27128                       0.01      0.01      0.01      0.55         0.01
  27129                       0.01      0.35      0.01      0.53         0.01
  27131                       0.01      0.15      0.01      0.01         0.01
  27132                       0.16      0.16      0.35      0.18         0.13
  27133                       0.15      0.15      0.15      0.11         0.13
  27134                       0.01      0.56      0.01      0.87         0.01
  27135                       0.56      0.61      0.56      0.77         0.56
  27136                       0.61      0.63      0.61      0.75         0.61
  27138                       0.63      0.63      0.63      0.74         0.62
  27139                       0.53      0.53      0.55      0.51         0.49
  27140                       0.64      0.64      0.65      0.01         0.01
  27150                       0.25      0.25      0.39      0.01         0.01
  27151                       0.41      0.41      0.45      0.14         0.14
  27152                       0.34      0.34      0.37      0.07         0.07
  27153                       0.28      0.28      0.35      0.01         0.01
  27154                       0.23      0.23      0.28      0.01         0.01
  27155                       0.18      0.18      0.23      0.01         0.01
  27156                       0.10      0.10      0.18      0.01         0.01
  27157                       0.01      0.01      0.06      0.01         0.01
  27159                       0.48      0.48      0.58      0.16         0.16
  27160                       0.21      0.21      0.45      0.01         0.01
  27161                       0.45      0.45      0.48      0.01         0.01
  27162                       0.39      0.39      0.44      0.01         0.01
  27163                       0.01      0.01      0.24      0.01         0.01
  27164                       0.53      0.53      0.77      0.01         0.01
  27165                       0.45      0.45      0.58      0.01         0.01
  27166                       0.01      0.01     88.31      0.01         0.01
  27176                       0.01      0.01      0.53      0.01         0.01
  27177                       0.48      0.48      0.58      0.01         0.01
  27178                       0.58      0.58      0.72      0.01         0.01
  27189                       0.31      0.31      0.53      0.01         0.01
  27190                       0.50      0.85      0.50      1.05         0.50
  27191                       0.71      0.71      0.79      0.69         0.69
  27194                       0.19      0.19      0.52      0.01         0.01
  27195                       0.05      0.60      0.12      0.67         0.05
  27197+                      0.45      0.45     91.19      0.01         0.01
  27230                       0.47      0.47      0.61      0.01         0.01
  27231                       0.61      0.61      0.67      0.01         0.01
  27339                       0.01      0.01      7.33      0.01         0.01
  27393                       0.01      0.01      0.01      0.08         0.01
  27398                       0.01      0.01     97.31      0.01         0.01
  27402                       1.39      1.39      1.45      0.01         0.01
  27403                       0.01      1.45      0.01      1.34         0.01
  27417                       9.15      9.15     11.89      0.01         0.01
  27420                       0.01      0.01      0.01      2.01         0.01
  27421                       0.01      0.01      2.12      0.01         0.01
  27441                       0.70      0.70      2.36      0.01         0.01
  27442                       2.94      2.94      4.82      0.01         0.01
  27456                      10.47     10.47     19.35      0.01         0.01
  27459                       0.01      0.01     88.07      0.01         0.01
  27473                      15.24     15.24     18.15      0.01         0.01
  27475                       0.52      0.52      1.08      7.92         0.01
  27482                       0.66      0.66      0.90      0.01         0.01
  27486                       5.59      5.59      6.70      0.65         0.65
  27488                       0.01      1.49      0.01      1.47         0.01
  27490                       0.01      0.01      0.18      0.01         0.01
  27502                       2.53      3.00      2.53      3.04         2.53
  27502A                      2.49      3.01      2.49      3.09         2.49
  27505                       0.01      0.01      0.01      0.01         0.01
  27532                       4.56      9.79      4.56      9.85         4.56
  27533                       9.71      9.83      9.71      9.86         9.71
  27534                       9.48      9.48      9.57      0.01         0.01
  27535                       9.58      9.58      9.65      0.93         0.93
  27536                       7.91      7.91      8.46      1.31         1.33
  27537                       5.87      5.87      7.17      0.06         0.06
  27538                       0.01      0.01      5.50      0.01         0.01
  27555                       0.01      0.01      2.78      0.01         0.01
  32220                      13.61     13.61     18.50      0.01         0.01
  35052                       0.01      0.13      0.01      0.06         0.01
  35090                      19.43     19.43     20.11      0.01         0.01
  35236                       2.01      2.18      2.07      1.70         1.52
  35251+                      0.01      2.71      0.01      2.75         0.01
  35253+                      2.34      2.75      2.34      2.77         2.34
  35254+                      2.75      2.76      2.75      2.77         2.75
  36500                       0.01      0.01      0.63      0.01         0.01
  36504                       0.01      1.29      0.01      0.01         0.01
  37034                       0.01      0.01      1.33      0.01         0.01
  37050                       0.01      0.01      0.01      0.57         0.01
  37121+                      0.01      2.75      0.01      1.70         0.01
  39073                       1.22      1.22      4.48      0.63         0.63
  39074                       0.68      0.69      0.70      0.76         0.64
  39077                       7.33      7.33     15.58      0.01         0.01
  39079                       6.97      6.97      7.26      0.01         0.01
  39081                      15.59     15.59     22.73      0.01         0.01
  40035                       0.01      0.01      0.06      0.01         0.01
  43155                       5.30      6.15      5.30     18.96         5.30
  43747                       3.17      3.17      3.40      0.01         0.01
  43748                       0.01      0.01      2.00      0.01         0.01
  43749                       4.66      4.70      4.66      4.70         4.66
  43757                       0.01      0.01      0.01      0.01         0.01
  95039                       0.85      0.85      1.13      0.01         0.01
  95602                     119.00    119.00    119.00      7.75         6.59
  95624                       0.01      1.85      0.01      0.01         0.01
  

  Analysis begun on:  Fri Mar  6 12:34:40 2026
  Analysis ended on:  Fri Mar  6 12:34:50 2026
  Total elapsed time: 00:00:10