
  EPA STORM WATER MANAGEMENT MODEL - VERSION 5.2 (Build 5.2.4)
  ------------------------------------------------------------

  WARNING 04: minimum elevation drop used for Conduit 31
  WARNING 04: minimum elevation drop used for Conduit 37
  WARNING 04: minimum elevation drop used for Conduit A5-2
  WARNING 04: minimum elevation drop used for Conduit B5-24
  WARNING 04: minimum elevation drop used for Conduit C4-86
  WARNING 02: maximum depth increased for Node 22
  WARNING 02: maximum depth increased for Node 24
  WARNING 02: maximum depth increased for Node 26
  WARNING 02: maximum depth increased for Node 28
  WARNING 02: maximum depth increased for Node MH-B05-039
  WARNING 02: maximum depth increased for Node MH-B05-063
  
  ****************
  Analysis Options
  ****************
  Flow Units ............... GPM
  Process Models:
    Rainfall/Runoff ........ NO
    RDII ................... NO
    Snowmelt ............... NO
    Groundwater ............ NO
    Flow Routing ........... YES
    Ponding Allowed ........ NO
    Water Quality .......... NO
  Flow Routing Method ...... DYNWAVE
  Surcharge Method ......... EXTRAN
  Starting Date ............ 01/01/2002 00:00:00
  Ending Date .............. 01/01/2002 00:00:00
  Antecedent Dry Days ...... 5.0
  Report Time Step ......... 00:05:00
  Routing Time Step ........ 300.00 sec
  Variable Time Step ....... YES
  Maximum Trials ........... 8
  Number of Threads ........ 1
  Head Tolerance ........... 0.005000 ft
  
  
  **************************        Volume        Volume
  Flow Routing Continuity        acre-feet      10^6 gal
  **************************     ---------     ---------
  Dry Weather Inflow .......         0.000         0.000
  Wet Weather Inflow .......         0.000         0.000
  Groundwater Inflow .......         0.000         0.000
  RDII Inflow ..............         0.000         0.000
  External Inflow ..........         0.000         0.000
  External Outflow .........         0.000         0.000
  Flooding Loss ............         0.000         0.000
  Evaporation Loss .........         0.000         0.000
  Exfiltration Loss ........         0.000         0.000
  Initial Stored Volume ....         0.019         0.006
  Final Stored Volume ......         0.020         0.007
  Continuity Error (%) .....        -5.545
  
  
  *************************
  Highest Continuity Errors
  *************************
  Node LA_COLINA_D (100.00%)
  Node MH-A05-006 (80.94%)
  Node MH-B05-038 (14.52%)
  Node MH-B05-037 (4.88%)
  Node VIA_LUCERO (-3.12%)
  
  
  ***************************
  Time-Step Critical Elements
  ***************************
  Link A4-28 (96.92%)
  Link A4-15 (2.72%)
  
  
  ********************************
  Highest Flow Instability Indexes
  ********************************
  Link A4-28 (11)
  Link A4-15 (5)
  
  
  *********************************
  Most Frequent Nonconverging Nodes
  *********************************
  Node 20 (0.03%)
  Node MH-B05-038 (0.03%)
  Node MH-A05-006 (0.01%)
  Node MH-B05-037 (0.01%)
  Node MH-A04-031 (0.00%)
  
  
  *************************
  Routing Time Step Summary
  *************************
  Minimum Time Step           :     0.57 sec
  Average Time Step           :     3.88 sec
  Maximum Time Step           :     8.87 sec
  % of Time in Steady State   :     0.00
  Average Iterations per Step :     2.00
  % of Steps Not Converging   :     0.03
  Time Step Frequencies       :
     300.000 - 83.462 sec      :     0.00 %
     83.462 - 23.220 sec      :     0.00 %
     23.220 -  6.460 sec      :     3.77 %
      6.460 -  1.797 sec      :    96.07 %
      1.797 -  0.500 sec      :     0.16 %
  
  
  ******************
  Node Depth Summary
  ******************
  
  ---------------------------------------------------------------------------------
                                 Average  Maximum  Maximum  Time of Max    Reported
                                   Depth    Depth      HGL   Occurrence   Max Depth
  Node                 Type         Feet     Feet     Feet  days hr:min        Feet
  ---------------------------------------------------------------------------------
  22                   JUNCTION     0.00     0.00   169.66     0  00:00        0.00
  24                   JUNCTION     0.00     0.00   169.66     0  00:00        0.00
  26                   JUNCTION     0.00     0.00   169.66     0  00:00        0.00
  28                   JUNCTION     0.00     0.00   169.66     0  00:00        0.00
  30                   JUNCTION     0.00     0.00   181.61     0  00:00        0.00
  48                   JUNCTION     0.00     0.00   194.61     0  00:00        0.00
  CO-A04-002           JUNCTION     0.00     0.00   159.63     0  00:00        0.00
  CO-A04-004           JUNCTION     0.00     0.00   178.00     0  00:00        0.00
  CO-A04-005           JUNCTION     0.00     0.00   188.00     0  00:00        0.00
  CO-A04-006           JUNCTION     0.00     0.00   196.00     0  00:00        0.00
  CO-A04-031           JUNCTION     0.00     0.00   190.00     0  00:00        0.00
  CO-A05-003           JUNCTION     0.00     0.00   193.87     0  00:00        0.00
  CO-A05-004           JUNCTION     0.00     0.00   185.00     0  00:00        0.00
  CO-B02-001           JUNCTION     0.00     0.00   358.00     0  00:00        0.00
  CO-B03-001           JUNCTION     0.00     0.00   258.00     0  00:00        0.00
  CO-B03-003           JUNCTION     0.00     0.00   286.00     0  00:00        0.00
  CO-B03-004           JUNCTION     0.00     0.00   260.00     0  00:00        0.00
  CO-B03-005           JUNCTION     0.00     0.00   278.00     0  00:00        0.00
  CO-B03-006           JUNCTION     0.00     0.00   326.00     0  00:00        0.00
  CO-B03-007           JUNCTION     0.00     0.00   302.00     0  00:00        0.00
  CO-B03-010           JUNCTION     0.00     0.00   271.00     0  00:00        0.00
  CO-B03-011           JUNCTION     0.00     0.00   269.00     0  00:00        0.00
  CO-B04-001           JUNCTION     0.00     0.00   185.00     0  00:00        0.00
  CO-B04-006           JUNCTION     0.00     0.00   230.00     0  00:00        0.00
  CO-B04-007           JUNCTION     0.00     0.00   233.00     0  00:00        0.00
  CO-B04-008           JUNCTION     0.00     0.00   254.00     0  00:00        0.00
  CO-B04-009           JUNCTION     0.00     0.00   246.00     0  00:00        0.00
  CO-B04-010           JUNCTION     0.00     0.00   244.00     0  00:00        0.00
  CO-B04-011           JUNCTION     0.00     0.00   261.00     0  00:00        0.00
  CO-B04-013           JUNCTION     0.00     0.00   183.31     0  00:00        0.00
  CO-B04-014           JUNCTION     0.00     0.00   201.00     0  00:00        0.00
  CO-B04-015           JUNCTION     0.00     0.00   200.00     0  00:00        0.00
  CO-B04-016           JUNCTION     0.00     0.00   190.00     0  00:00        0.00
  CO-B04-017           JUNCTION     0.00     0.00   188.00     0  00:00        0.00
  CO-B04-018           JUNCTION     0.00     0.00   189.37     0  00:00        0.00
  CO-B04-019           JUNCTION     0.00     0.00   191.00     0  00:00        0.00
  CO-B04-020           JUNCTION     0.00     0.00   184.77     0  00:00        0.00
  CO-B04-021           JUNCTION     0.00     0.00   205.00     0  00:00        0.00
  CO-B04-022           JUNCTION     0.00     0.00   212.00     0  00:00        0.00
  CO-B04-023           JUNCTION     0.00     0.00   220.00     0  00:00        0.00
  CO-B04-024           JUNCTION     0.00     0.00   226.00     0  00:00        0.00
  CO-B04-026           JUNCTION     0.00     0.00   224.00     0  00:00        0.00
  CO-B04-027           JUNCTION     0.00     0.00   222.00     0  00:00        0.00
  CO-B04-028           JUNCTION     0.00     0.00   230.00     0  00:00        0.00
  CO-B04-029           JUNCTION     0.00     0.00   233.00     0  00:00        0.00
  CO-B04-031           JUNCTION     0.00     0.00   248.00     0  00:00        0.00
  CO-B05-013           JUNCTION     0.00     0.00   179.04     0  00:00        0.00
  CO-B05-014           JUNCTION     0.00     0.00   180.00     0  00:00        0.00
  CO-B05-016           JUNCTION     0.00     0.00   178.31     0  00:00        0.00
  CO-B05-017           JUNCTION     0.00     0.00   183.00     0  00:00        0.00
  CO-B06-001           JUNCTION     0.00     0.00   168.00     0  00:00        0.00
  CO-B06-024           JUNCTION     0.00     0.00   158.00     0  00:00        0.00
  CO-B06-025           JUNCTION     0.00     0.00   154.00     0  00:00        0.00
  CO-C03-002           JUNCTION     0.00     0.00   362.00     0  00:00        0.00
  CO-C03-003           JUNCTION     0.00     0.00   425.00     0  00:00        0.00
  CO-C03-004           JUNCTION     0.00     0.00   462.00     0  00:00        0.00
  CO-C03-007           JUNCTION     0.00     0.00   318.00     0  00:00        0.00
  CO-C03-008           JUNCTION     0.00     0.00   340.09     0  00:00        0.00
  CO-C03-009           JUNCTION     0.00     0.00   322.00     0  00:00        0.00
  CO-C03-010           JUNCTION     0.00     0.00   332.00     0  00:00        0.00
  CO-C03-011           JUNCTION     0.00     0.00   311.51     0  00:00        0.00
  CO-C03-012           JUNCTION     0.00     0.00   280.00     0  00:00        0.00
  CO-C03-013           JUNCTION     0.00     0.00   296.54     0  00:00        0.00
  CO-C03-014           JUNCTION     0.00     0.00   362.00     0  00:00        0.00
  CO-C03-016           JUNCTION     0.00     0.00   435.00     0  00:00        0.00
  CO-C04-002           JUNCTION     0.00     0.00   228.00     0  00:00        0.00
  CO-C04-003           JUNCTION     0.00     0.00   225.20     0  00:00        0.00
  CO-C04-004           JUNCTION     0.00     0.00   221.50     0  00:00        0.00
  CO-C04-005           JUNCTION     0.00     0.00   226.40     0  00:00        0.00
  CO-C04-006           JUNCTION     0.00     0.00   253.58     0  00:00        0.00
  CO-C04-007           JUNCTION     0.00     0.00   242.35     0  00:00        0.00
  CO-C04-008           JUNCTION     0.00     0.00   269.78     0  00:00        0.00
  CO-C04-012           JUNCTION     0.00     0.00   269.36     0  00:00        0.00
  CO-C04-013           JUNCTION     0.00     0.00   239.00     0  00:00        0.00
  CO-C04-014           JUNCTION     0.00     0.00   247.48     0  00:00        0.00
  CO-C05-001           JUNCTION     0.00     0.00   206.89     0  00:00        0.00
  CO-C05-004           JUNCTION     0.00     0.00   181.92     0  00:00        0.00
  CO-C05-006           JUNCTION     0.00     0.00   199.94     0  00:00        0.00
  CO-C05-007           JUNCTION     0.00     0.00   212.20     0  00:00        0.00
  CO-C05-009           JUNCTION     0.00     0.00   209.81     0  00:00        0.00
  CO-C05-010           JUNCTION     0.00     0.00   212.00     0  00:00        0.00
  CO-C05-011           JUNCTION     0.00     0.00   205.00     0  00:00        0.00
  CO-C05-012           JUNCTION     0.00     0.00   210.00     0  00:00        0.00
  CO-C06-004           JUNCTION     0.00     0.00   168.00     0  00:00        0.00
  CO-C06-005           JUNCTION     0.00     0.00   158.00     0  00:00        0.00
  CO-C06-009           JUNCTION     0.00     0.00   155.00     0  00:00        0.00
  CO-C07-001           JUNCTION     0.00     0.00   156.00     0  00:00        0.00
  CO-D01-001           JUNCTION     0.00     0.00   765.00     0  00:00        0.00
  CO-D02-001           JUNCTION     0.00     0.00   595.00     0  00:00        0.00
  CO-D07-058           JUNCTION     0.00     0.00   136.00     0  00:00        0.00
  CO-D08-001           JUNCTION     0.00     0.00   160.00     0  00:00        0.00
  LA_COLINA_D          JUNCTION     0.48     0.48   154.48     0  00:01        0.48
  MH-A03-001           JUNCTION     0.00     0.00   189.63     0  00:00        0.00
  MH-A03-002           JUNCTION     0.00     0.00   211.43     0  00:00        0.00
  MH-A03-003           JUNCTION     0.00     0.00   210.00     0  00:00        0.00
  MH-A03-004           JUNCTION     0.00     0.00   209.06     0  00:00        0.00
  MH-A03-005           JUNCTION     0.00     0.00   200.50     0  00:00        0.00
  MH-A03-007           JUNCTION     0.00     0.00   201.13     0  00:00        0.00
  MH-A03-008           JUNCTION     0.00     0.00   199.00     0  00:00        0.00
  MH-A03-009           JUNCTION     0.00     0.00   193.30     0  00:00        0.00
  MH-A03-011           JUNCTION     0.00     0.00   201.95     0  00:00        0.00
  MH-A03-012           JUNCTION     0.00     0.00   196.00     0  00:00        0.00
  MH-A03-013           JUNCTION     0.00     0.00   195.31     0  00:00        0.00
  MH-A03-014           JUNCTION     0.00     0.00   218.00     0  00:00        0.00
  MH-A03-015           JUNCTION     0.00     0.00   210.00     0  00:00        0.00
  MH-A03-016           JUNCTION     0.00     0.00   206.00     0  00:00        0.00
  MH-A03-017           JUNCTION     0.00     0.00   202.00     0  00:00        0.00
  MH-A03-018           JUNCTION     0.00     0.00   198.00     0  00:00        0.00
  MH-A03-019           JUNCTION     0.00     0.00   236.00     0  00:00        0.00
  MH-A04-001           JUNCTION     0.00     0.00   176.00     0  00:00        0.00
  MH-A04-005           JUNCTION     0.00     0.00   161.00     0  00:00        0.00
  MH-A04-007           JUNCTION     0.00     0.00   182.00     0  00:00        0.00
  MH-A04-021           JUNCTION     0.00     0.00   174.19     0  00:00        0.00
  MH-A04-022           JUNCTION     0.00     0.00   180.00     0  00:00        0.00
  MH-A04-023           JUNCTION     0.00     0.00   178.00     0  00:00        0.00
  MH-A04-024           JUNCTION     0.00     0.00   172.86     0  00:00        0.00
  MH-A04-025           JUNCTION     0.00     0.00   176.00     0  00:00        0.00
  MH-A04-026           JUNCTION     0.00     0.00   172.00     0  00:00        0.00
  MH-A04-027           JUNCTION     0.00     0.00   169.20     0  00:00        0.00
  MH-A04-028           JUNCTION     0.00     0.00   168.20     0  00:00        0.00
  MH-A04-029           JUNCTION     0.00     0.00   165.18     0  00:00        0.00
  MH-A04-030           JUNCTION     0.00     0.00   159.31     0  00:00        0.00
  MH-A04-031           JUNCTION     0.46     3.83   156.47     0  00:00        0.46
  MH-A04-032           JUNCTION     0.07     0.31   153.33     0  00:01        0.08
  MH-A04-033           JUNCTION     0.00     0.00   154.81     0  00:00        0.00
  MH-A04-034           JUNCTION     0.00     0.00   170.97     0  00:00        0.00
  MH-A04-035           JUNCTION     0.00     0.31   153.51     0  00:01        0.06
  MH-A04-036           JUNCTION     0.00     0.00   158.03     0  00:00        0.00
  MH-A04-037           JUNCTION     0.00     0.00   165.05     0  00:00        0.00
  MH-A04-039           JUNCTION     0.00     0.00   156.01     0  00:00        0.00
  MH-A04-040           JUNCTION     0.00     0.00   157.84     0  00:00        0.00
  MH-A04-041           JUNCTION     0.00     0.00   160.30     0  00:00        0.00
  MH-A04-042           JUNCTION     0.00     0.00   162.00     0  00:00        0.00
  MH-A04-043           JUNCTION     0.00     0.00   169.33     0  00:00        0.00
  MH-A04-044           JUNCTION     0.00     0.00   170.00     0  00:00        0.00
  MH-A04-045           JUNCTION     0.00     0.00   182.00     0  00:00        0.00
  MH-A04-046           JUNCTION     0.00     0.00   174.00     0  00:00        0.00
  MH-A04-047           JUNCTION     0.00     0.00   174.00     0  00:00        0.00
  MH-A04-048           JUNCTION     0.00     0.00   172.00     0  00:00        0.00
  MH-A04-049           JUNCTION     0.00     0.00   164.00     0  00:00        0.00
  MH-A04-050           JUNCTION     0.00     0.00   176.00     0  00:00        0.00
  MH-A04-051           JUNCTION     0.00     0.00   174.00     0  00:00        0.00
  MH-A04-052           JUNCTION     0.00     0.00   172.00     0  00:00        0.00
  MH-A04-053           JUNCTION     0.00     0.00   175.00     0  00:00        0.00
  MH-A04-054           JUNCTION     0.00     0.00   182.00     0  00:00        0.00
  MH-A04-055           JUNCTION     0.00     0.00   186.00     0  00:00        0.00
  MH-A04-056           JUNCTION     0.00     0.00   188.00     0  00:00        0.00
  MH-A04-057           JUNCTION     0.00     0.00   189.00     0  00:00        0.00
  MH-A04-058           JUNCTION     0.00     0.00   190.00     0  00:00        0.00
  MH-A04-059           JUNCTION     0.00     0.00   191.00     0  00:00        0.00
  MH-A04-060           JUNCTION     0.00     0.00   210.00     0  00:00        0.00
  MH-A04-063           JUNCTION     0.00     0.00   196.00     0  00:00        0.00
  MH-A04-064           JUNCTION     0.00     0.00   186.00     0  00:00        0.00
  MH-A04-065           JUNCTION     0.00     0.00   178.00     0  00:00        0.00
  MH-A04-067           JUNCTION     0.00     0.00   182.00     0  00:00        0.00
  MH-A04-068           JUNCTION     0.00     0.00   175.60     0  00:00        0.00
  MH-A04-069           JUNCTION     0.00     0.00   196.00     0  00:00        0.00
  MH-A04-070           JUNCTION     0.00     0.00   194.00     0  00:00        0.00
  MH-A04-071           JUNCTION     0.00     0.00   180.00     0  00:00        0.00
  MH-A04-072           JUNCTION     0.00     0.00   186.00     0  00:00        0.00
  MH-A04-073           JUNCTION     0.00     0.00   190.00     0  00:00        0.00
  MH-A04-074           JUNCTION     0.00     0.00   194.00     0  00:00        0.00
  MH-A04-094           JUNCTION     0.00     0.00   176.85     0  00:00        0.00
  MH-A05-002           JUNCTION     0.00     0.00   190.00     0  00:00        0.00
  MH-A05-003           JUNCTION     0.00     0.00   184.00     0  00:00        0.00
  MH-A05-004           JUNCTION     0.00     0.00   178.00     0  00:00        0.00
  MH-A05-005           JUNCTION     0.00     0.00   170.15     0  00:02        0.00
  MH-A05-006           JUNCTION     0.91     5.45   169.73     0  00:02        0.91
  MH-B02-001           JUNCTION     0.00     0.00   309.12     0  00:00        0.00
  MH-B02-002           JUNCTION     0.00     0.00   322.00     0  00:00        0.00
  MH-B02-003           JUNCTION     0.00     0.00   307.60     0  00:00        0.00
  MH-B03-001           JUNCTION     0.00     0.00   263.00     0  00:00        0.00
  MH-B03-003           JUNCTION     0.00     0.00   266.00     0  00:00        0.00
  MH-B03-004           JUNCTION     0.00     0.00   270.00     0  00:00        0.00
  MH-B03-005           JUNCTION     0.00     0.00   270.00     0  00:00        0.00
  MH-B03-007           JUNCTION     0.00     0.00   276.00     0  00:00        0.00
  MH-B03-008           JUNCTION     0.00     0.00   270.00     0  00:00        0.00
  MH-B03-009           JUNCTION     0.00     0.00   316.00     0  00:00        0.00
  MH-B03-010           JUNCTION     0.00     0.00   304.00     0  00:00        0.00
  MH-B03-011           JUNCTION     0.00     0.00   303.00     0  00:00        0.00
  MH-B03-012           JUNCTION     0.00     0.00   320.00     0  00:00        0.00
  MH-B03-013           JUNCTION     0.00     0.00   305.00     0  00:00        0.00
  MH-B03-014           JUNCTION     0.00     0.00   301.00     0  00:00        0.00
  MH-B03-015           JUNCTION     0.00     0.00   300.00     0  00:00        0.00
  MH-B03-016           JUNCTION     0.00     0.00   294.64     0  00:00        0.00
  MH-B03-017           JUNCTION     0.00     0.00   303.18     0  00:00        0.00
  MH-B03-018           JUNCTION     0.00     0.00   255.60     0  00:00        0.00
  MH-B03-019           JUNCTION     0.00     0.00   259.70     0  00:00        0.00
  MH-B03-020           JUNCTION     0.00     0.00   260.61     0  00:00        0.00
  MH-B03-021           JUNCTION     0.00     0.00   262.22     0  00:00        0.00
  MH-B03-023           JUNCTION     0.00     0.00   263.51     0  00:00        0.00
  MH-B03-024           JUNCTION     0.00     0.00   270.00     0  00:00        0.00
  MH-B03-025           JUNCTION     0.00     0.00   268.00     0  00:00        0.00
  MH-B03-026           JUNCTION     0.00     0.00   261.58     0  00:00        0.00
  MH-B03-027           JUNCTION     0.00     0.00   243.31     0  00:00        0.00
  MH-B03-028           JUNCTION     0.00     0.00   251.37     0  00:00        0.00
  MH-B03-029           JUNCTION     0.00     0.00   243.49     0  00:00        0.00
  MH-B03-030           JUNCTION     0.00     0.00   235.66     0  00:00        0.00
  MH-B03-031           JUNCTION     0.00     0.00   241.68     0  00:00        0.00
  MH-B03-032           JUNCTION     0.00     0.00   249.91     0  00:00        0.00
  MH-B03-033           JUNCTION     0.00     0.00   251.28     0  00:00        0.00
  MH-B03-034           JUNCTION     0.00     0.00   262.57     0  00:00        0.00
  MH-B03-035           JUNCTION     0.00     0.00   263.18     0  00:00        0.00
  MH-B03-036           JUNCTION     0.00     0.00   263.86     0  00:00        0.00
  MH-B03-037           JUNCTION     0.00     0.00   293.82     0  00:00        0.00
  MH-B03-038           JUNCTION     0.00     0.00   282.00     0  00:00        0.00
  MH-B03-039           JUNCTION     0.00     0.00   284.00     0  00:00        0.00
  MH-B03-040           JUNCTION     0.00     0.00   259.81     0  00:00        0.00
  MH-B04-001           JUNCTION     0.00     0.00   232.00     0  00:00        0.00
  MH-B04-002           JUNCTION     0.00     0.00   248.00     0  00:00        0.00
  MH-B04-003           JUNCTION     0.00     0.00   244.00     0  00:00        0.00
  MH-B04-004           JUNCTION     0.00     0.00   234.00     0  00:00        0.00
  MH-B04-005           JUNCTION     0.00     0.00   232.00     0  00:00        0.00
  MH-B04-006           JUNCTION     0.00     0.00   238.00     0  00:00        0.00
  MH-B04-007           JUNCTION     0.00     0.00   230.00     0  00:00        0.00
  MH-B04-009           JUNCTION     0.00     0.00   242.00     0  00:00        0.00
  MH-B04-010           JUNCTION     0.00     0.00   232.00     0  00:00        0.00
  MH-B04-011           JUNCTION     0.00     0.00   246.00     0  00:00        0.00
  MH-B04-012           JUNCTION     0.00     0.00   260.00     0  00:00        0.00
  MH-B04-013           JUNCTION     0.00     0.00   248.00     0  00:00        0.00
  MH-B04-014           JUNCTION     0.00     0.00   246.00     0  00:00        0.00
  MH-B04-015           JUNCTION     0.00     0.00   244.00     0  00:00        0.00
  MH-B04-017           JUNCTION     0.00     0.00   238.00     0  00:00        0.00
  MH-B04-018           JUNCTION     0.00     0.00   262.00     0  00:00        0.00
  MH-B04-019           JUNCTION     0.00     0.00   260.00     0  00:00        0.00
  MH-B04-020           JUNCTION     0.00     0.00   256.00     0  00:00        0.00
  MH-B04-021           JUNCTION     0.00     0.00   248.00     0  00:00        0.00
  MH-B04-022           JUNCTION     0.00     0.00   234.00     0  00:00        0.00
  MH-B04-024           JUNCTION     0.00     0.00   213.09     0  00:00        0.00
  MH-B04-025           JUNCTION     0.00     0.00   217.00     0  00:00        0.00
  MH-B04-026           JUNCTION     0.00     0.00   219.00     0  00:00        0.00
  MH-B04-027           JUNCTION     0.00     0.00   224.00     0  00:00        0.00
  MH-B04-028           JUNCTION     0.00     0.00   232.04     0  00:00        0.00
  MH-B04-029           JUNCTION     0.00     0.00   174.07     0  00:00        0.00
  MH-B04-030           JUNCTION     0.00     0.00   182.40     0  00:00        0.00
  MH-B04-032           JUNCTION     0.00     0.00   172.42     0  00:00        0.00
  MH-B04-033           JUNCTION     0.00     0.00   172.55     0  00:00        0.00
  MH-B04-034           JUNCTION     0.00     0.00   177.81     0  00:00        0.00
  MH-B04-035           JUNCTION     0.00     0.00   174.10     0  00:00        0.00
  MH-B04-036           JUNCTION     0.00     0.00   223.14     0  00:00        0.00
  MH-B04-037           JUNCTION     0.00     0.00   218.91     0  00:00        0.00
  MH-B04-038           JUNCTION     0.00     0.00   216.00     0  00:00        0.00
  MH-B04-039           JUNCTION     0.00     0.00   210.00     0  00:00        0.00
  MH-B04-040           JUNCTION     0.00     0.00   203.00     0  00:00        0.00
  MH-B04-041           JUNCTION     0.00     0.00   188.00     0  00:00        0.00
  MH-B04-042           JUNCTION     0.00     0.00   188.03     0  00:00        0.00
  MH-B04-043           JUNCTION     0.00     0.00   182.55     0  00:00        0.00
  MH-B04-044           JUNCTION     0.00     0.00   182.19     0  00:00        0.00
  MH-B04-045           JUNCTION     0.00     0.00   197.13     0  00:00        0.00
  MH-B04-046           JUNCTION     0.00     0.00   181.72     0  00:00        0.00
  MH-B04-047           JUNCTION     0.00     0.00   180.78     0  00:00        0.00
  MH-B04-048           JUNCTION     0.00     0.00   182.22     0  00:00        0.00
  MH-B04-049           JUNCTION     0.00     0.00   183.04     0  00:00        0.00
  MH-B04-050           JUNCTION     0.00     0.00   183.91     0  00:00        0.00
  MH-B04-051           JUNCTION     0.00     0.00   184.71     0  00:00        0.00
  MH-B04-052           JUNCTION     0.00     0.00   185.24     0  00:00        0.00
  MH-B04-053           JUNCTION     0.00     0.00   193.13     0  00:00        0.00
  MH-B04-054           JUNCTION     0.00     0.00   193.93     0  00:00        0.00
  MH-B04-055           JUNCTION     0.00     0.00   216.00     0  00:00        0.00
  MH-B04-056           JUNCTION     0.00     0.00   214.00     0  00:00        0.00
  MH-B04-057           JUNCTION     0.00     0.00   224.00     0  00:00        0.00
  MH-B04-058           JUNCTION     0.00     0.00   202.61     0  00:00        0.00
  MH-B04-059           JUNCTION     0.00     0.00   201.10     0  00:00        0.00
  MH-B04-060           JUNCTION     0.00     0.00   211.30     0  00:00        0.00
  MH-B04-061           JUNCTION     0.00     0.00   194.91     0  00:00        0.00
  MH-B04-062           JUNCTION     0.00     0.00   195.73     0  00:00        0.00
  MH-B04-063           JUNCTION     0.00     0.00   199.80     0  00:00        0.00
  MH-B04-064           JUNCTION     0.00     0.00   204.46     0  00:00        0.00
  MH-B04-065           JUNCTION     0.00     0.00   208.18     0  00:00        0.00
  MH-B04-066           JUNCTION     0.00     0.00   230.00     0  00:00        0.00
  MH-B04-067           JUNCTION     0.00     0.00   204.00     0  00:00        0.00
  MH-B04-068           JUNCTION     0.00     0.00   211.00     0  00:00        0.00
  MH-B04-069           JUNCTION     0.00     0.00   221.00     0  00:00        0.00
  MH-B04-070           JUNCTION     0.00     0.00   220.00     0  00:00        0.00
  MH-B04-071           JUNCTION     0.00     0.00   221.00     0  00:00        0.00
  MH-B04-072           JUNCTION     0.00     0.00   222.00     0  00:00        0.00
  MH-B04-077           JUNCTION     0.00     0.00   236.00     0  00:00        0.00
  MH-B05-001           JUNCTION     0.00     0.00   166.86     0  00:00        0.00
  MH-B05-002           JUNCTION     0.00     0.00   182.76     0  00:00        0.00
  MH-B05-012           JUNCTION     0.00     0.00   184.98     0  00:00        0.00
  MH-B05-021           JUNCTION     0.00     0.00   181.00     0  00:00        0.00
  MH-B05-022           JUNCTION     0.00     0.00   178.42     0  00:00        0.00
  MH-B05-023           JUNCTION     0.00     0.00   175.93     0  00:00        0.00
  MH-B05-024           JUNCTION     0.00     0.00   177.47     0  00:00        0.00
  MH-B05-025           JUNCTION     0.00     0.00   184.23     0  00:00        0.00
  MH-B05-026           JUNCTION     0.00     0.00   191.37     0  00:00        0.00
  MH-B05-027           JUNCTION     0.00     0.00   186.00     0  00:00        0.00
  MH-B05-028           JUNCTION     0.00     0.00   186.08     0  00:00        0.00
  MH-B05-029           JUNCTION     0.00     0.00   204.28     0  00:00        0.00
  MH-B05-030           JUNCTION     0.00     0.00   196.50     0  00:00        0.00
  MH-B05-031           JUNCTION     0.00     0.00   188.63     0  00:00        0.00
  MH-B05-032           JUNCTION     0.00     0.00   189.30     0  00:00        0.00
  MH-B05-033           JUNCTION     0.00     0.00   190.34     0  00:00        0.00
  MH-B05-034           JUNCTION     0.00     0.00   191.28     0  00:00        0.00
  MH-B05-035           JUNCTION     0.00     0.00   193.87     0  00:00        0.00
  MH-B05-036           JUNCTION     0.00     0.00   200.92     0  00:00        0.00
  MH-B05-037           JUNCTION     0.20     4.44   169.43     0  00:00        0.20
  MH-B05-038           JUNCTION     2.14     5.62   168.67     0  00:00        2.14
  MH-B05-039           JUNCTION     0.00     0.00   192.43     0  00:00        0.00
  MH-B05-040           JUNCTION     0.00     0.00   171.12     0  00:00        0.00
  MH-B05-041           JUNCTION     0.00     0.00   172.00     0  00:00        0.00
  MH-B05-042           JUNCTION     0.00     0.00   172.20     0  00:00        0.00
  MH-B05-043           JUNCTION     0.00     0.00   202.00     0  00:00        0.00
  MH-B05-044           JUNCTION     0.00     0.00   168.36     0  00:00        0.00
  MH-B05-045           JUNCTION     0.00     0.00   169.21     0  00:00        0.00
  MH-B05-046           JUNCTION     0.00     0.00   179.65     0  00:00        0.00
  MH-B05-047           JUNCTION     0.00     0.00   174.74     0  00:00        0.00
  MH-B05-048           JUNCTION     0.00     0.00   171.85     0  00:00        0.00
  MH-B05-049           JUNCTION     0.00     0.00   170.83     0  00:00        0.00
  MH-B05-050           JUNCTION     0.00     0.00   171.48     0  00:00        0.00
  MH-B05-051           JUNCTION     0.00     0.00   178.00     0  00:00        0.00
  MH-B05-052           JUNCTION     0.00     0.00   178.33     0  00:00        0.00
  MH-B05-053           JUNCTION     0.00     0.00   172.49     0  00:00        0.00
  MH-B05-054           JUNCTION     0.00     0.00   175.87     0  00:00        0.00
  MH-B05-055           JUNCTION     0.00     0.00   180.74     0  00:00        0.00
  MH-B05-057           JUNCTION     0.00     0.00   178.27     0  00:00        0.00
  MH-B05-058           JUNCTION     0.00     0.00   178.31     0  00:00        0.00
  MH-B05-059           JUNCTION     0.00     0.00   179.00     0  00:00        0.00
  MH-B05-060           JUNCTION     0.00     0.00   192.76     0  00:00        0.00
  MH-B05-061           JUNCTION     0.00     0.00   182.14     0  00:00        0.00
  MH-B05-062           JUNCTION     0.00     0.00   192.25     0  00:00        0.00
  MH-B05-063           JUNCTION     0.00     0.00   183.59     0  00:00        0.00
  MH-B05-064           JUNCTION     0.00     0.00   191.26     0  00:00        0.00
  MH-B05-065           JUNCTION     0.00     0.00   184.47     0  00:00        0.00
  MH-B05-066           JUNCTION     0.00     0.00   184.84     0  00:00        0.00
  MH-B05-067           JUNCTION     0.00     0.00   190.00     0  00:00        0.00
  MH-B05-068           JUNCTION     0.00     0.00   182.07     0  00:00        0.00
  MH-B05-069           JUNCTION     0.00     0.00   197.67     0  00:00        0.00
  MH-B05-070           JUNCTION     0.00     0.00   197.75     0  00:00        0.00
  MH-B05-071           JUNCTION     0.00     0.00   193.70     0  00:00        0.00
  MH-B05-072           JUNCTION     0.00     0.00   193.28     0  00:00        0.00
  MH-B05-073           JUNCTION     0.00     0.00   195.34     0  00:00        0.00
  MH-B05-074           JUNCTION     0.00     0.00   198.00     0  00:00        0.00
  MH-B05-076           JUNCTION     0.00     0.00   176.48     0  00:00        0.00
  MH-B06-004           JUNCTION     0.00     0.00   167.00     0  00:00        0.00
  MH-B06-005           JUNCTION     0.00     0.00   166.00     0  00:00        0.00
  MH-B06-013           JUNCTION     0.00     0.00   165.04     0  00:00        0.00
  MH-B06-014           JUNCTION     0.00     0.00   159.81     0  00:00        0.00
  MH-B06-015           JUNCTION     0.00     0.00   156.85     0  00:00        0.00
  MH-B06-016           JUNCTION     0.00     0.00   153.64     0  00:00        0.00
  MH-B06-017           JUNCTION     0.00     0.00   154.73     0  00:00        0.00
  MH-B06-018           JUNCTION     0.00     0.00   154.84     0  00:00        0.00
  MH-B06-019           JUNCTION     0.00     0.00   164.00     0  00:00        0.00
  MH-B06-020           JUNCTION     0.00     0.00   160.01     0  00:00        0.00
  MH-B06-021           JUNCTION     0.00     0.00   157.72     0  00:00        0.00
  MH-B06-023           JUNCTION     0.00     0.00   159.57     0  00:00        0.00
  MH-B06-024           JUNCTION     0.00     0.00   161.22     0  00:00        0.00
  MH-B06-025           JUNCTION     0.00     0.00   164.47     0  00:00        0.00
  MH-B06-026           JUNCTION     0.00     0.00   194.00     0  00:00        0.00
  MH-B06-027           JUNCTION     0.00     0.00   165.50     0  00:00        0.00
  MH-B06-028           JUNCTION     0.00     0.00   165.00     0  00:00        0.00
  MH-B06-029           JUNCTION     0.00     0.00   156.00     0  00:00        0.00
  MH-B06-030           JUNCTION     0.00     0.00   160.00     0  00:00        0.00
  MH-B06-031           JUNCTION     0.00     0.00   154.00     0  00:00        0.00
  MH-B06-032           JUNCTION     0.00     0.00   153.00     0  00:00        0.00
  MH-B06-033           JUNCTION     0.00     0.00   152.00     0  00:00        0.00
  MH-B06-034           JUNCTION     0.00     0.00   150.00     0  00:00        0.00
  MH-B06-035           JUNCTION     0.00     0.00   151.86     0  00:00        0.00
  MH-B07-031           JUNCTION     0.00     0.00   148.04     0  00:00        0.00
  MH-B07-032           JUNCTION     0.00     0.00   149.44     0  00:00        0.00
  MH-C01-001           JUNCTION     0.00     0.00   575.00     0  00:00        0.00
  MH-C01-002           JUNCTION     0.00     0.00   585.00     0  00:00        0.00
  MH-C01-003           JUNCTION     0.00     0.00   620.00     0  00:00        0.00
  MH-C01-004           JUNCTION     0.00     0.00   700.00     0  00:00        0.00
  MH-C01-005           JUNCTION     0.00     0.00   640.00     0  00:00        0.00
  MH-C02-001           JUNCTION     0.00     0.00   525.00     0  00:00        0.00
  MH-C02-002           JUNCTION     0.00     0.00   510.00     0  00:00        0.00
  MH-C02-003           JUNCTION     0.00     0.00   535.00     0  00:00        0.00
  MH-C02-004           JUNCTION     0.00     0.00   525.00     0  00:00        0.00
  MH-C02-005           JUNCTION     0.00     0.00   540.00     0  00:00        0.00
  MH-C02-006           JUNCTION     0.00     0.00   575.00     0  00:00        0.00
  MH-C02-007           JUNCTION     0.00     0.00   611.21     0  00:00        0.00
  MH-C02-008           JUNCTION     0.00     0.00   657.82     0  00:00        0.00
  MH-C02-009           JUNCTION     0.00     0.00   632.92     0  00:00        0.00
  MH-C02-010           JUNCTION     0.00     0.00   646.43     0  00:00        0.00
  MH-C02-011           JUNCTION     0.00     0.00   650.00     0  00:00        0.00
  MH-C02-012           JUNCTION     0.00     0.00   655.31     0  00:00        0.00
  MH-C02-013           JUNCTION     0.00     0.00   675.00     0  00:00        0.00
  MH-C02-014           JUNCTION     0.00     0.00   452.00     0  00:00        0.00
  MH-C02-015           JUNCTION     0.00     0.00   485.00     0  00:00        0.00
  MH-C02-016           JUNCTION     0.00     0.00   465.00     0  00:00        0.00
  MH-C02-017           JUNCTION     0.00     0.00   459.49     0  00:00        0.00
  MH-C02-018           JUNCTION     0.00     0.00   445.65     0  00:00        0.00
  MH-C02-019           JUNCTION     0.00     0.00   465.00     0  00:00        0.00
  MH-C02-020           JUNCTION     0.00     0.00   390.00     0  00:00        0.00
  MH-C02-021           JUNCTION     0.00     0.00   395.00     0  00:00        0.00
  MH-C02-022           JUNCTION     0.00     0.00   420.00     0  00:00        0.00
  MH-C02-023           JUNCTION     0.00     0.00   435.00     0  00:00        0.00
  MH-C02-024           JUNCTION     0.00     0.00   437.00     0  00:00        0.00
  MH-C02-025           JUNCTION     0.00     0.00   455.00     0  00:00        0.00
  MH-C02-026           JUNCTION     0.00     0.00   485.00     0  00:00        0.00
  MH-C02-027           JUNCTION     0.00     0.00   470.00     0  00:00        0.00
  MH-C02-028           JUNCTION     0.00     0.00   490.00     0  00:00        0.00
  MH-C02-029           JUNCTION     0.00     0.00   475.00     0  00:00        0.00
  MH-C02-030           JUNCTION     0.00     0.00   440.00     0  00:00        0.00
  MH-C02-031           JUNCTION     0.00     0.00   415.00     0  00:00        0.00
  MH-C02-032           JUNCTION     0.00     0.00   390.00     0  00:00        0.00
  MH-C02-033           JUNCTION     0.00     0.00   380.00     0  00:00        0.00
  MH-C02-034           JUNCTION     0.00     0.00   371.30     0  00:00        0.00
  MH-C02-035           JUNCTION     0.00     0.00   501.00     0  00:00        0.00
  MH-C02-036           JUNCTION     0.00     0.00   500.00     0  00:00        0.00
  MH-C02-037           JUNCTION     0.00     0.00   475.00     0  00:00        0.00
  MH-C02-038           JUNCTION     0.00     0.00   470.00     0  00:00        0.00
  MH-C03-001           JUNCTION     0.00     0.00   322.00     0  00:00        0.00
  MH-C03-002           JUNCTION     0.00     0.00   420.00     0  00:00        0.00
  MH-C03-003           JUNCTION     0.00     0.00   450.00     0  00:00        0.00
  MH-C03-004           JUNCTION     0.00     0.00   461.00     0  00:00        0.00
  MH-C03-005           JUNCTION     0.00     0.00   460.00     0  00:00        0.00
  MH-C03-006           JUNCTION     0.00     0.00   430.00     0  00:00        0.00
  MH-C03-007           JUNCTION     0.00     0.00   445.00     0  00:00        0.00
  MH-C03-008           JUNCTION     0.00     0.00   435.00     0  00:00        0.00
  MH-C03-009           JUNCTION     0.00     0.00   430.00     0  00:00        0.00
  MH-C03-010           JUNCTION     0.00     0.00   425.00     0  00:00        0.00
  MH-C03-011           JUNCTION     0.00     0.00   395.00     0  00:00        0.00
  MH-C03-012           JUNCTION     0.00     0.00   272.35     0  00:00        0.00
  MH-C03-013           JUNCTION     0.00     0.00   276.00     0  00:00        0.00
  MH-C03-014           JUNCTION     0.00     0.00   280.00     0  00:00        0.00
  MH-C03-015           JUNCTION     0.00     0.00   288.00     0  00:00        0.00
  MH-C03-016           JUNCTION     0.00     0.00   292.00     0  00:00        0.00
  MH-C03-017           JUNCTION     0.00     0.00   312.00     0  00:00        0.00
  MH-C03-018           JUNCTION     0.00     0.00   313.00     0  00:00        0.00
  MH-C03-019           JUNCTION     0.00     0.00   361.00     0  00:00        0.00
  MH-C03-020           JUNCTION     0.00     0.00   356.55     0  00:00        0.00
  MH-C03-021           JUNCTION     0.00     0.00   349.68     0  00:00        0.00
  MH-C03-022           JUNCTION     0.00     0.00   365.18     0  00:00        0.00
  MH-C03-023           JUNCTION     0.00     0.00   373.88     0  00:00        0.00
  MH-C03-024           JUNCTION     0.00     0.00   420.00     0  00:00        0.00
  MH-C03-025           JUNCTION     0.00     0.00   387.00     0  00:00        0.00
  MH-C03-026           JUNCTION     0.00     0.00   395.00     0  00:00        0.00
  MH-C03-027           JUNCTION     0.00     0.00   400.00     0  00:00        0.00
  MH-C03-028           JUNCTION     0.00     0.00   390.00     0  00:00        0.00
  MH-C03-029           JUNCTION     0.00     0.00   400.00     0  00:00        0.00
  MH-C03-030           JUNCTION     0.00     0.00   324.99     0  00:00        0.00
  MH-C03-031           JUNCTION     0.00     0.00   323.66     0  00:00        0.00
  MH-C03-032           JUNCTION     0.00     0.00   375.00     0  00:00        0.00
  MH-C03-033           JUNCTION     0.00     0.00   375.00     0  00:00        0.00
  MH-C03-034           JUNCTION     0.00     0.00   370.00     0  00:00        0.00
  MH-C03-035           JUNCTION     0.00     0.00   345.00     0  00:00        0.00
  MH-C03-036           JUNCTION     0.00     0.00   330.00     0  00:00        0.00
  MH-C03-037           JUNCTION     0.00     0.00   321.00     0  00:00        0.00
  MH-C03-038           JUNCTION     0.00     0.00   316.00     0  00:00        0.00
  MH-C03-039           JUNCTION     0.00     0.00   300.00     0  00:00        0.00
  MH-C03-040           JUNCTION     0.00     0.00   296.00     0  00:00        0.00
  MH-C03-041           JUNCTION     0.00     0.00   322.38     0  00:00        0.00
  MH-C03-042           JUNCTION     0.00     0.00   322.00     0  00:00        0.00
  MH-C03-043           JUNCTION     0.00     0.00   320.66     0  00:00        0.00
  MH-C03-044           JUNCTION     0.00     0.00   308.80     0  00:00        0.00
  MH-C03-045           JUNCTION     0.00     0.00   298.70     0  00:00        0.00
  MH-C03-046           JUNCTION     0.00     0.00   297.35     0  00:00        0.00
  MH-C03-047           JUNCTION     0.00     0.00   288.00     0  00:00        0.00
  MH-C03-048           JUNCTION     0.00     0.00   282.00     0  00:00        0.00
  MH-C03-049           JUNCTION     0.00     0.00   266.00     0  00:00        0.00
  MH-C03-050           JUNCTION     0.00     0.00   292.00     0  00:00        0.00
  MH-C03-051           JUNCTION     0.00     0.00   287.00     0  00:00        0.00
  MH-C03-052           JUNCTION     0.00     0.00   286.00     0  00:00        0.00
  MH-C03-053           JUNCTION     0.00     0.00   284.97     0  00:00        0.00
  MH-C03-054           JUNCTION     0.00     0.00   268.00     0  00:00        0.00
  MH-C03-055           JUNCTION     0.00     0.00   272.00     0  00:00        0.00
  MH-C03-056           JUNCTION     0.00     0.00   278.00     0  00:00        0.00
  MH-C03-057           JUNCTION     0.00     0.00   282.00     0  00:00        0.00
  MH-C03-058           JUNCTION     0.00     0.00   288.54     0  00:00        0.00
  MH-C03-059           JUNCTION     0.00     0.00   287.54     0  00:00        0.00
  MH-C03-060           JUNCTION     0.00     0.00   290.54     0  00:00        0.00
  MH-C03-061           JUNCTION     0.00     0.00   295.82     0  00:00        0.00
  MH-C03-062           JUNCTION     0.00     0.00   375.00     0  00:00        0.00
  MH-C03-063           JUNCTION     0.00     0.00   385.00     0  00:00        0.00
  MH-C03-064           JUNCTION     0.00     0.00   357.88     0  00:00        0.00
  MH-C03-065           JUNCTION     0.00     0.00   364.00     0  00:00        0.00
  MH-C03-066           JUNCTION     0.00     0.00   358.00     0  00:00        0.00
  MH-C03-067           JUNCTION     0.00     0.00   343.00     0  00:00        0.00
  MH-C03-068           JUNCTION     0.00     0.00   342.00     0  00:00        0.00
  MH-C03-069           JUNCTION     0.00     0.00   341.00     0  00:00        0.00
  MH-C03-070           JUNCTION     0.00     0.00   332.00     0  00:00        0.00
  MH-C03-071           JUNCTION     0.00     0.00   330.27     0  00:00        0.00
  MH-C03-072           JUNCTION     0.00     0.00   319.00     0  00:00        0.00
  MH-C03-073           JUNCTION     0.00     0.00   315.05     0  00:00        0.00
  MH-C03-074           JUNCTION     0.00     0.00   400.00     0  00:00        0.00
  MH-C03-075           JUNCTION     0.00     0.00   415.00     0  00:00        0.00
  MH-C03-076           JUNCTION     0.00     0.00   425.00     0  00:00        0.00
  MH-C03-077           JUNCTION     0.00     0.00   427.00     0  00:00        0.00
  MH-C03-078           JUNCTION     0.00     0.00   265.41     0  00:00        0.00
  MH-C03-079           JUNCTION     0.00     0.00   264.00     0  00:00        0.00
  MH-C03-080           JUNCTION     0.00     0.00   259.55     0  00:00        0.00
  MH-C03-083           JUNCTION     0.00     0.00   300.00     0  00:00        0.00
  MH-C04-001           JUNCTION     0.00     0.00   258.68     0  00:00        0.00
  MH-C04-012           JUNCTION     0.00     0.00   244.00     0  00:00        0.00
  MH-C04-013           JUNCTION     0.00     0.00   238.00     0  00:00        0.00
  MH-C04-014           JUNCTION     0.00     0.00   234.00     0  00:00        0.00
  MH-C04-015           JUNCTION     0.00     0.00   216.00     0  00:00        0.00
  MH-C04-016           JUNCTION     0.00     0.00   222.00     0  00:00        0.00
  MH-C04-017           JUNCTION     0.00     0.00   224.00     0  00:00        0.00
  MH-C04-018           JUNCTION     0.00     0.00   236.00     0  00:00        0.00
  MH-C04-019           JUNCTION     0.00     0.00   234.00     0  00:00        0.00
  MH-C04-020           JUNCTION     0.00     0.00   232.00     0  00:00        0.00
  MH-C04-021           JUNCTION     0.00     0.00   230.00     0  00:00        0.00
  MH-C04-022           JUNCTION     0.00     0.00   228.00     0  00:00        0.00
  MH-C04-023           JUNCTION     0.00     0.00   226.00     0  00:00        0.00
  MH-C04-024           JUNCTION     0.00     0.00   225.00     0  00:00        0.00
  MH-C04-025           JUNCTION     0.00     0.00   228.00     0  00:00        0.00
  MH-C04-026           JUNCTION     0.00     0.00   232.00     0  00:00        0.00
  MH-C04-027           JUNCTION     0.00     0.00   236.00     0  00:00        0.00
  MH-C04-028           JUNCTION     0.00     0.00   266.00     0  00:00        0.00
  MH-C04-029           JUNCTION     0.00     0.00   228.00     0  00:00        0.00
  MH-C04-030           JUNCTION     0.00     0.00   227.00     0  00:00        0.00
  MH-C04-031           JUNCTION     0.00     0.00   224.84     0  00:00        0.00
  MH-C04-032           JUNCTION     0.00     0.00   221.18     0  00:00        0.00
  MH-C04-033           JUNCTION     0.00     0.00   220.82     0  00:00        0.00
  MH-C04-034           JUNCTION     0.00     0.00   220.50     0  00:00        0.00
  MH-C04-035           JUNCTION     0.00     0.00   215.20     0  00:00        0.00
  MH-C04-036           JUNCTION     0.00     0.00   215.31     0  00:00        0.00
  MH-C04-037           JUNCTION     0.00     0.00   217.22     0  00:00        0.00
  MH-C04-038           JUNCTION     0.00     0.00   219.33     0  00:00        0.00
  MH-C04-039           JUNCTION     0.00     0.00   225.18     0  00:00        0.00
  MH-C04-040           JUNCTION     0.00     0.00   225.00     0  00:00        0.00
  MH-C04-041           JUNCTION     0.00     0.00   227.00     0  00:00        0.00
  MH-C04-042           JUNCTION     0.00     0.00   229.90     0  00:00        0.00
  MH-C04-043           JUNCTION     0.00     0.00   250.75     0  00:00        0.00
  MH-C04-044           JUNCTION     0.00     0.00   233.83     0  00:00        0.00
  MH-C04-045           JUNCTION     0.00     0.00   238.40     0  00:00        0.00
  MH-C04-046           JUNCTION     0.00     0.00   235.91     0  00:00        0.00
  MH-C04-047           JUNCTION     0.00     0.00   241.30     0  00:00        0.00
  MH-C04-048           JUNCTION     0.00     0.00   238.87     0  00:00        0.00
  MH-C04-049           JUNCTION     0.00     0.00   253.92     0  00:00        0.00
  MH-C04-050           JUNCTION     0.00     0.00   260.39     0  00:00        0.00
  MH-C04-051           JUNCTION     0.00     0.00   255.47     0  00:00        0.00
  MH-C04-054           JUNCTION     0.00     0.00   258.00     0  00:00        0.00
  MH-C04-055           JUNCTION     0.00     0.00   254.00     0  00:00        0.00
  MH-C04-057           JUNCTION     0.00     0.00   251.00     0  00:00        0.00
  MH-C04-058           JUNCTION     0.00     0.00   244.00     0  00:00        0.00
  MH-C04-063           JUNCTION     0.00     0.00   280.00     0  00:00        0.00
  MH-C04-064           JUNCTION     0.00     0.00   300.00     0  00:00        0.00
  MH-C04-065           JUNCTION     0.00     0.00   326.00     0  00:00        0.00
  MH-C04-066           JUNCTION     0.00     0.00   316.00     0  00:00        0.00
  MH-C04-067           JUNCTION     0.00     0.00   310.00     0  00:00        0.00
  MH-C04-068           JUNCTION     0.00     0.00   298.81     0  00:00        0.00
  MH-C04-069           JUNCTION     0.00     0.00   290.00     0  00:00        0.00
  MH-C04-070           JUNCTION     0.00     0.00   305.32     0  00:00        0.00
  MH-C04-071           JUNCTION     0.00     0.00   229.00     0  00:00        0.00
  MH-C04-072           JUNCTION     0.00     0.00   232.00     0  00:00        0.00
  MH-C04-073           JUNCTION     0.00     0.00   231.00     0  00:00        0.00
  MH-C04-074           JUNCTION     0.00     0.00   232.63     0  00:00        0.00
  MH-C04-075           JUNCTION     0.00     0.00   231.50     0  00:00        0.00
  MH-C04-076           JUNCTION     0.00     0.00   236.00     0  00:00        0.00
  MH-C04-077           JUNCTION     0.00     0.00   238.00     0  00:00        0.00
  MH-C04-078           JUNCTION     0.00     0.00   246.83     0  00:00        0.00
  MH-C04-079           JUNCTION     0.00     0.00   242.00     0  00:00        0.00
  MH-C04-080           JUNCTION     0.00     0.00   239.00     0  00:00        0.00
  MH-C04-081           JUNCTION     0.00     0.00   246.00     0  00:00        0.00
  MH-C04-082           JUNCTION     0.00     0.00   254.66     0  00:00        0.00
  MH-C04-083           JUNCTION     0.00     0.00   258.02     0  00:00        0.00
  MH-C04-084           JUNCTION     0.00     0.00   259.44     0  00:00        0.00
  MH-C04-085           JUNCTION     0.00     0.00   213.25     0  00:00        0.00
  MH-C04-086           JUNCTION     0.00     0.00   212.50     0  00:00        0.00
  MH-C04-087           JUNCTION     0.00     0.00   210.00     0  00:00        0.00
  MH-C04-088           JUNCTION     0.00     0.00   219.00     0  00:00        0.00
  MH-C04-089           JUNCTION     0.00     0.00   216.00     0  00:00        0.00
  MH-C04-090           JUNCTION     0.00     0.00   217.50     0  00:00        0.00
  MH-C04-091           JUNCTION     0.00     0.00   221.00     0  00:00        0.00
  MH-C04-092           JUNCTION     0.00     0.00   218.00     0  00:00        0.00
  MH-C04-093           JUNCTION     0.00     0.00   220.00     0  00:00        0.00
  MH-C04-094           JUNCTION     0.00     0.00   225.00     0  00:00        0.00
  MH-C04-096           JUNCTION     0.00     0.00   280.00     0  00:00        0.00
  MH-C05-001           JUNCTION     0.00     0.00   186.82     0  00:00        0.00
  MH-C05-002           JUNCTION     0.00     0.00   204.84     0  00:00        0.00
  MH-C05-003           JUNCTION     0.00     0.00   184.80     0  00:00        0.00
  MH-C05-004           JUNCTION     0.00     0.00   243.00     0  00:00        0.00
  MH-C05-006           JUNCTION     0.00     0.00   212.00     0  00:00        0.00
  MH-C05-007           JUNCTION     0.00     0.00   234.00     0  00:00        0.00
  MH-C05-008           JUNCTION     0.00     0.00   228.00     0  00:00        0.00
  MH-C05-009           JUNCTION     0.00     0.00   220.00     0  00:00        0.00
  MH-C05-010           JUNCTION     0.00     0.00   230.00     0  00:00        0.00
  MH-C05-011           JUNCTION     0.00     0.00   240.00     0  00:00        0.00
  MH-C05-013           JUNCTION     0.00     0.00   171.08     0  00:00        0.00
  MH-C05-014           JUNCTION     0.00     0.00   244.00     0  00:00        0.00
  MH-C05-015           JUNCTION     0.00     0.00   230.00     0  00:00        0.00
  MH-C05-016           JUNCTION     0.00     0.00   217.67     0  00:00        0.00
  MH-C05-017           JUNCTION     0.00     0.00   205.61     0  00:00        0.00
  MH-C05-018           JUNCTION     0.00     0.00   190.40     0  00:00        0.00
  MH-C05-019           JUNCTION     0.00     0.00   184.44     0  00:00        0.00
  MH-C05-020           JUNCTION     0.00     0.00   184.58     0  00:00        0.00
  MH-C05-021           JUNCTION     0.00     0.00   179.42     0  00:00        0.00
  MH-C05-022           JUNCTION     0.00     0.00   178.06     0  00:00        0.00
  MH-C05-023           JUNCTION     0.00     0.00   171.75     0  00:00        0.00
  MH-C05-024           JUNCTION     0.00     0.00   177.00     0  00:00        0.00
  MH-C05-025           JUNCTION     0.00     0.00   176.31     0  00:00        0.00
  MH-C05-026           JUNCTION     0.00     0.00   200.00     0  00:00        0.00
  MH-C05-027           JUNCTION     0.00     0.00   199.50     0  00:00        0.00
  MH-C05-028           JUNCTION     0.00     0.00   189.87     0  00:00        0.00
  MH-C05-029           JUNCTION     0.00     0.00   190.40     0  00:00        0.00
  MH-C05-030           JUNCTION     0.00     0.00   188.59     0  00:00        0.00
  MH-C05-031           JUNCTION     0.00     0.00   187.78     0  00:00        0.00
  MH-C05-032           JUNCTION     0.00     0.00   196.00     0  00:00        0.00
  MH-C05-033           JUNCTION     0.00     0.00   193.00     0  00:00        0.00
  MH-C05-034           JUNCTION     0.00     0.00   198.73     0  00:00        0.00
  MH-C05-035           JUNCTION     0.00     0.00   191.74     0  00:00        0.00
  MH-C05-036           JUNCTION     0.00     0.00   199.00     0  00:00        0.00
  MH-C05-037           JUNCTION     0.00     0.00   201.51     0  00:00        0.00
  MH-C05-038           JUNCTION     0.00     0.00   198.61     0  00:00        0.00
  MH-C05-039           JUNCTION     0.00     0.00   196.82     0  00:00        0.00
  MH-C05-040           JUNCTION     0.00     0.00   197.51     0  00:00        0.00
  MH-C05-041           JUNCTION     0.00     0.00   196.13     0  00:00        0.00
  MH-C05-042           JUNCTION     0.00     0.00   198.94     0  00:00        0.00
  MH-C05-043           JUNCTION     0.00     0.00   195.45     0  00:00        0.00
  MH-C05-046           JUNCTION     0.00     0.00   194.71     0  00:00        0.00
  MH-C05-047           JUNCTION     0.00     0.00   190.53     0  00:00        0.00
  MH-C05-048           JUNCTION     0.00     0.00   185.88     0  00:00        0.00
  MH-C05-049           JUNCTION     0.00     0.00   186.10     0  00:00        0.00
  MH-C05-050           JUNCTION     0.00     0.00   193.67     0  00:00        0.00
  MH-C05-051           JUNCTION     0.00     0.00   188.07     0  00:00        0.00
  MH-C05-052           JUNCTION     0.00     0.00   192.00     0  00:00        0.00
  MH-C05-053           JUNCTION     0.00     0.00   226.00     0  00:00        0.00
  MH-C05-054           JUNCTION     0.00     0.00   184.28     0  00:00        0.00
  MH-C05-055           JUNCTION     0.00     0.00   195.75     0  00:00        0.00
  MH-C05-056           JUNCTION     0.00     0.00   197.43     0  00:00        0.00
  MH-C05-057           JUNCTION     0.00     0.00   198.79     0  00:00        0.00
  MH-C05-058           JUNCTION     0.00     0.00   200.00     0  00:00        0.00
  MH-C05-059           JUNCTION     0.00     0.00   201.00     0  00:00        0.00
  MH-C05-060           JUNCTION     0.00     0.00   204.00     0  00:00        0.00
  MH-C05-061           JUNCTION     0.00     0.00   208.00     0  00:00        0.00
  MH-C05-062           JUNCTION     0.00     0.00   202.42     0  00:00        0.00
  MH-C05-064           JUNCTION     0.00     0.00   204.00     0  00:00        0.00
  MH-C05-067           JUNCTION     0.00     0.00   209.00     0  00:00        0.00
  MH-C05-068           JUNCTION     0.00     0.00   208.00     0  00:00        0.00
  MH-C05-069           JUNCTION     0.00     0.00   209.00     0  00:00        0.00
  MH-C05-070           JUNCTION     0.00     0.00   210.00     0  00:00        0.00
  MH-C05-071           JUNCTION     0.00     0.00   200.00     0  00:00        0.00
  MH-C05-072           JUNCTION     0.00     0.00   202.00     0  00:00        0.00
  MH-C05-073           JUNCTION     0.00     0.00   206.00     0  00:00        0.00
  MH-C05-074           JUNCTION     0.00     0.00   212.00     0  00:00        0.00
  MH-C05-075           JUNCTION     0.00     0.00   210.00     0  00:00        0.00
  MH-C05-076           JUNCTION     0.00     0.00   232.79     0  00:00        0.00
  MH-C05-078           JUNCTION     0.00     0.00   223.30     0  00:00        0.00
  MH-C05-079           JUNCTION     0.00     0.00   222.08     0  00:00        0.00
  MH-C05-080           JUNCTION     0.00     0.00   216.00     0  00:00        0.00
  MH-C05-081           JUNCTION     0.00     0.00   220.84     0  00:00        0.00
  MH-C05-082           JUNCTION     0.00     0.00   222.10     0  00:00        0.00
  MH-C05-083           JUNCTION     0.00     0.00   225.39     0  00:00        0.00
  MH-C05-084           JUNCTION     0.00     0.00   205.92     0  00:00        0.00
  MH-C05-085           JUNCTION     0.00     0.00   203.78     0  00:00        0.00
  MH-C05-086           JUNCTION     0.00     0.00   203.50     0  00:00        0.00
  MH-C05-087           JUNCTION     0.00     0.00   200.00     0  00:00        0.00
  MH-C05-088           JUNCTION     0.00     0.00   244.00     0  00:00        0.00
  MH-C05-089           JUNCTION     0.00     0.00   211.00     0  00:00        0.00
  MH-C06-004           JUNCTION     0.00     0.00   169.07     0  00:00        0.00
  MH-C06-005           JUNCTION     0.00     0.00   155.00     0  00:00        0.00
  MH-C06-006           JUNCTION     0.00     0.00   156.00     0  00:00        0.00
  MH-C06-007           JUNCTION     0.00     0.00   156.72     0  00:00        0.00
  MH-C06-008           JUNCTION     0.00     0.00   159.10     0  00:00        0.00
  MH-C06-009           JUNCTION     0.00     0.00   163.43     0  00:00        0.00
  MH-C06-010           JUNCTION     0.00     0.00   230.37     0  00:00        0.00
  MH-C06-011           JUNCTION     0.00     0.00   230.00     0  00:00        0.00
  MH-C06-012           JUNCTION     0.00     0.00   220.55     0  00:00        0.00
  MH-C06-013           JUNCTION     0.00     0.00   210.41     0  00:00        0.00
  MH-C06-014           JUNCTION     0.00     0.00   208.02     0  00:00        0.00
  MH-C06-015           JUNCTION     0.00     0.00   207.01     0  00:00        0.00
  MH-C06-016           JUNCTION     0.00     0.00   206.89     0  00:00        0.00
  MH-C06-017           JUNCTION     0.00     0.00   234.00     0  00:00        0.00
  MH-C06-018           JUNCTION     0.00     0.00   228.00     0  00:00        0.00
  MH-C06-019           JUNCTION     0.00     0.00   238.00     0  00:00        0.00
  MH-C06-020           JUNCTION     0.00     0.00   246.00     0  00:00        0.00
  MH-C06-027           JUNCTION     0.00     0.00   186.00     0  00:00        0.00
  MH-C06-028           JUNCTION     0.00     0.00   204.03     0  00:00        0.00
  MH-C06-029           JUNCTION     0.00     0.00   213.76     0  00:00        0.00
  MH-C06-030           JUNCTION     0.00     0.00   206.80     0  00:00        0.00
  MH-C06-031           JUNCTION     0.00     0.00   232.00     0  00:00        0.00
  MH-C06-032           JUNCTION     0.00     0.00   207.98     0  00:00        0.00
  MH-C06-033           JUNCTION     0.00     0.00   156.00     0  00:00        0.00
  MH-C06-034           JUNCTION     0.00     0.00   154.00     0  00:00        0.00
  MH-C06-035           JUNCTION     0.00     0.00   155.72     0  00:00        0.00
  MH-C06-036           JUNCTION     0.00     0.00   153.55     0  00:00        0.00
  MH-C06-037           JUNCTION     0.00     0.00   152.11     0  00:00        0.00
  MH-C06-038           JUNCTION     0.00     0.00   150.63     0  00:00        0.00
  MH-C06-039           JUNCTION     0.00     0.00   149.00     0  00:00        0.00
  MH-C06-040           JUNCTION     0.00     0.00   242.00     0  00:00        0.00
  MH-C07-004           JUNCTION     0.00     0.00   136.19     0  00:00        0.00
  MH-C07-005           JUNCTION     0.00     0.00   140.49     0  00:00        0.00
  MH-C07-006           JUNCTION     0.00     0.00   139.66     0  00:00        0.00
  MH-C07-007           JUNCTION     0.00     0.00   152.31     0  00:00        0.00
  MH-C07-008           JUNCTION     0.00     0.00   135.59     0  00:00        0.00
  MH-C07-009           JUNCTION     0.00     0.00   141.38     0  00:00        0.00
  MH-C07-010           JUNCTION     0.00     0.00   142.50     0  00:00        0.00
  MH-C07-011           JUNCTION     0.00     0.00   143.73     0  00:00        0.00
  MH-C07-012           JUNCTION     0.00     0.00   144.88     0  00:00        0.00
  MH-C07-013           JUNCTION     0.00     0.00   146.05     0  00:00        0.00
  MH-C07-014           JUNCTION     0.00     0.00   146.56     0  00:00        0.00
  MH-C07-015           JUNCTION     0.00     0.00   147.06     0  00:00        0.00
  MH-C07-017           JUNCTION     0.00     0.00   142.00     0  00:00        0.00
  MH-C08-020           JUNCTION     0.00     0.00   133.46     0  00:00        0.00
  MH-C08-021           JUNCTION     0.00     0.00   136.00     0  00:00        0.00
  MH-C08-022           JUNCTION     0.00     0.00   131.67     0  00:00        0.00
  MH-C08-023           JUNCTION     0.00     0.00   128.66     0  00:00        0.00
  MH-C08-024           JUNCTION     0.00     0.00   130.68     0  00:00        0.00
  MH-C08-027           JUNCTION     0.00     0.00   176.00     0  00:00        0.00
  MH-C08-028           JUNCTION     0.00     0.00   172.00     0  00:00        0.00
  MH-C08-029           JUNCTION     0.00     0.00   156.00     0  00:00        0.00
  MH-C08-030           JUNCTION     0.00     0.00   160.00     0  00:00        0.00
  MH-D01-001           JUNCTION     0.00     0.00   725.00     0  00:00        0.00
  MH-D01-002           JUNCTION     0.00     0.00   755.00     0  00:00        0.00
  MH-D01-003           JUNCTION     0.00     0.00   775.00     0  00:00        0.00
  MH-D01-004           JUNCTION     0.00     0.00   740.00     0  00:00        0.00
  MH-D02-001           JUNCTION     0.00     0.00   720.00     0  00:00        0.00
  MH-D02-002           JUNCTION     0.00     0.00   680.00     0  00:00        0.00
  MH-D02-003           JUNCTION     0.00     0.00   700.00     0  00:00        0.00
  MH-D02-004           JUNCTION     0.00     0.00   790.00     0  00:00        0.00
  MH-D02-005           JUNCTION     0.00     0.00   625.00     0  00:00        0.00
  MH-D02-006           JUNCTION     0.00     0.00   595.00     0  00:00        0.00
  MH-D02-007           JUNCTION     0.00     0.00   575.00     0  00:00        0.00
  MH-D02-008           JUNCTION     0.00     0.00   558.00     0  00:00        0.00
  MH-D02-009           JUNCTION     0.00     0.00   557.00     0  00:00        0.00
  MH-D02-010           JUNCTION     0.00     0.00   555.00     0  00:00        0.00
  MH-D02-020           JUNCTION     0.00     0.00   760.00     0  00:00        0.00
  MH-D05-066           JUNCTION     0.00     0.00   234.72     0  00:00        0.00
  MH-D07-004           JUNCTION     0.00     0.00   138.00     0  00:00        0.00
  MH-D07-005           JUNCTION     0.00     0.00   132.00     0  00:00        0.00
  MH-D07-104           JUNCTION     0.00     0.00   136.00     0  00:00        0.00
  MH-D07-105           JUNCTION     0.00     0.00   126.00     0  00:00        0.00
  MH-D07-106           JUNCTION     0.00     0.00   124.00     0  00:00        0.00
  MH-D07-115           JUNCTION     0.00     0.00   156.00     0  00:00        0.00
  MH-D08-010           JUNCTION     0.00     0.00   114.25     0  00:00        0.00
  MH-D08-011           JUNCTION     0.00     0.00   115.46     0  00:00        0.00
  MH-D08-012           JUNCTION     0.00     0.00   116.19     0  00:00        0.00
  MH-D08-013           JUNCTION     0.00     0.00   117.00     0  00:00        0.00
  MH-D08-014           JUNCTION     0.00     0.00   119.29     0  00:00        0.00
  MH-D08-015           JUNCTION     0.00     0.00   124.52     0  00:00        0.00
  MH-D08-016           JUNCTION     0.00     0.00   125.73     0  00:00        0.00
  MH-D08-017           JUNCTION     0.00     0.00   129.00     0  00:00        0.00
  MH-D08-018           JUNCTION     0.00     0.00   168.00     0  00:00        0.00
  MH-D08-021           JUNCTION     0.00     0.00   134.00     0  00:00        0.00
  MH-D08-049           JUNCTION     0.00     0.00   111.50     0  00:00        0.00
  MH-D08-088           JUNCTION     0.00     0.00   123.29     0  00:00        0.00
  MH-D08-089           JUNCTION     0.00     0.00   132.47     0  00:00        0.00
  MH-D08-094           JUNCTION     0.00     0.00   122.00     0  00:00        0.00
  MH-D08-095           JUNCTION     0.00     0.00   121.00     0  00:00        0.00
  MH-D08-097           JUNCTION     0.00     0.00   120.00     0  00:00        0.00
  MH-D08-098           JUNCTION     0.00     0.00   119.00     0  00:00        0.00
  MH-D08-099           JUNCTION     0.00     0.00   117.14     0  00:00        0.00
  MH-D08-101           JUNCTION     0.00     0.00   148.00     0  00:00        0.00
  XX-001               JUNCTION     0.00     0.00   179.00     0  00:00        0.00
  XX-002               JUNCTION     0.00     0.00   168.00     0  00:00        0.00
  XX-003               JUNCTION     0.00     0.00   266.00     0  00:00        0.00
  XX-004               JUNCTION     0.00     0.00   246.40     0  00:00        0.00
  XX-005               JUNCTION     0.00     0.00   262.00     0  00:00        0.00
  XX-006               JUNCTION     0.00     0.00   262.00     0  00:00        0.00
  XX-007               JUNCTION     0.00     0.00   232.00     0  00:00        0.00
  XX-008               JUNCTION     0.00     0.00   420.00     0  00:00        0.00
  XX-009               JUNCTION     0.00     0.00   250.00     0  00:00        0.00
  XX-014               JUNCTION     0.00     0.00   127.29     0  00:00        0.00
  20                   OUTFALL      0.00     0.00   111.46     0  00:00        0.00
  LA_COLINA            STORAGE      2.31     4.99   155.78     0  00:00        2.32
  VIA_LUCERO           STORAGE      2.19     5.00   168.00     0  00:00        2.19
  
  
  *******************
  Node Inflow Summary
  *******************
  
  -------------------------------------------------------------------------------------------------
                                  Maximum  Maximum                  Lateral       Total        Flow
                                  Lateral    Total  Time of Max      Inflow      Inflow     Balance
                                   Inflow   Inflow   Occurrence      Volume      Volume       Error
  Node                 Type           GPM      GPM  days hr:min    10^6 gal    10^6 gal     Percent
  -------------------------------------------------------------------------------------------------
  22                   JUNCTION      0.00     0.00     0  00:00           0           0       0.000 gal
  24                   JUNCTION      0.00     0.00     0  00:00           0           0       0.000 gal
  26                   JUNCTION      0.00     0.00     0  00:00           0           0       0.000 gal
  28                   JUNCTION      0.00     0.00     0  00:00           0           0       0.000 gal
  30                   JUNCTION      0.00     0.00     0  00:00           0           0       0.000 gal
  48                   JUNCTION      0.00     0.00     0  00:00           0           0       0.000 gal
  CO-A04-002           JUNCTION      0.00     0.00     0  00:00           0           0       0.000 gal
  CO-A04-004           JUNCTION      0.00     0.00     0  00:00           0           0       0.000 gal
  CO-A04-005           JUNCTION      0.00     0.00     0  00:00           0           0       0.000 gal
  CO-A04-006           JUNCTION      0.00     0.00     0  00:00           0           0       0.000 gal
  CO-A04-031           JUNCTION      0.00     0.00     0  00:00           0           0       0.000 gal
  CO-A05-003           JUNCTION      0.00     0.00     0  00:00           0           0       0.000 gal
  CO-A05-004           JUNCTION      0.00     0.00     0  00:00           0           0       0.000 gal
  CO-B02-001           JUNCTION      0.00     0.00     0  00:00           0           0       0.000 gal
  CO-B03-001           JUNCTION      0.00     0.00     0  00:00           0           0       0.000 gal
  CO-B03-003           JUNCTION      0.00     0.00     0  00:00           0           0       0.000 gal
  CO-B03-004           JUNCTION      0.00     0.00     0  00:00           0           0       0.000 gal
  CO-B03-005           JUNCTION      0.00     0.00     0  00:00           0           0       0.000 gal
  CO-B03-006           JUNCTION      0.00     0.00     0  00:00           0           0       0.000 gal
  CO-B03-007           JUNCTION      0.00     0.00     0  00:00           0           0       0.000 gal
  CO-B03-010           JUNCTION      0.00     0.00     0  00:00           0           0       0.000 gal
  CO-B03-011           JUNCTION      0.00     0.00     0  00:00           0           0       0.000 gal
  CO-B04-001           JUNCTION      0.00     0.00     0  00:00           0           0       0.000 gal
  CO-B04-006           JUNCTION      0.00     0.00     0  00:00           0           0       0.000 gal
  CO-B04-007           JUNCTION      0.00     0.00     0  00:00           0           0       0.000 gal
  CO-B04-008           JUNCTION      0.00     0.00     0  00:00           0           0       0.000 gal
  CO-B04-009           JUNCTION      0.00     0.00     0  00:00           0           0       0.000 gal
  CO-B04-010           JUNCTION      0.00     0.00     0  00:00           0           0       0.000 gal
  CO-B04-011           JUNCTION      0.00     0.00     0  00:00           0           0       0.000 gal
  CO-B04-013           JUNCTION      0.00     0.00     0  00:00           0           0       0.000 gal
  CO-B04-014           JUNCTION      0.00     0.00     0  00:00           0           0       0.000 gal
  CO-B04-015           JUNCTION      0.00     0.00     0  00:00           0           0       0.000 gal
  CO-B04-016           JUNCTION      0.00     0.00     0  00:00           0           0       0.000 gal
  CO-B04-017           JUNCTION      0.00     0.00     0  00:00           0           0       0.000 gal
  CO-B04-018           JUNCTION      0.00     0.00     0  00:00           0           0       0.000 gal
  CO-B04-019           JUNCTION      0.00     0.00     0  00:00           0           0       0.000 gal
  CO-B04-020           JUNCTION      0.00     0.00     0  00:00           0           0       0.000 gal
  CO-B04-021           JUNCTION      0.00     0.00     0  00:00           0           0       0.000 gal
  CO-B04-022           JUNCTION      0.00     0.00     0  00:00           0           0       0.000 gal
  CO-B04-023           JUNCTION      0.00     0.00     0  00:00           0           0       0.000 gal
  CO-B04-024           JUNCTION      0.00     0.00     0  00:00           0           0       0.000 gal
  CO-B04-026           JUNCTION      0.00     0.00     0  00:00           0           0       0.000 gal
  CO-B04-027           JUNCTION      0.00     0.00     0  00:00           0           0       0.000 gal
  CO-B04-028           JUNCTION      0.00     0.00     0  00:00           0           0       0.000 gal
  CO-B04-029           JUNCTION      0.00     0.00     0  00:00           0           0       0.000 gal
  CO-B04-031           JUNCTION      0.00     0.00     0  00:00           0           0       0.000 gal
  CO-B05-013           JUNCTION      0.00     0.00     0  00:00           0           0       0.000 gal
  CO-B05-014           JUNCTION      0.00     0.00     0  00:00           0           0       0.000 gal
  CO-B05-016           JUNCTION      0.00     0.00     0  00:00           0           0       0.000 gal
  CO-B05-017           JUNCTION      0.00     0.00     0  00:00           0           0       0.000 gal
  CO-B06-001           JUNCTION      0.00     0.00     0  00:00           0           0       0.000 gal
  CO-B06-024           JUNCTION      0.00     0.00     0  00:00           0           0       0.000 gal
  CO-B06-025           JUNCTION      0.00     0.00     0  00:00           0           0       0.000 gal
  CO-C03-002           JUNCTION      0.00     0.00     0  00:00           0           0       0.000 gal
  CO-C03-003           JUNCTION      0.00     0.00     0  00:00           0           0       0.000 gal
  CO-C03-004           JUNCTION      0.00     0.00     0  00:00           0           0       0.000 gal
  CO-C03-007           JUNCTION      0.00     0.00     0  00:00           0           0       0.000 gal
  CO-C03-008           JUNCTION      0.00     0.00     0  00:00           0           0       0.000 gal
  CO-C03-009           JUNCTION      0.00     0.00     0  00:00           0           0       0.000 gal
  CO-C03-010           JUNCTION      0.00     0.00     0  00:00           0           0       0.000 gal
  CO-C03-011           JUNCTION      0.00     0.00     0  00:00           0           0       0.000 gal
  CO-C03-012           JUNCTION      0.00     0.00     0  00:00           0           0       0.000 gal
  CO-C03-013           JUNCTION      0.00     0.00     0  00:00           0           0       0.000 gal
  CO-C03-014           JUNCTION      0.00     0.00     0  00:00           0           0       0.000 gal
  CO-C03-016           JUNCTION      0.00     0.00     0  00:00           0           0       0.000 gal
  CO-C04-002           JUNCTION      0.00     0.00     0  00:00           0           0       0.000 gal
  CO-C04-003           JUNCTION      0.00     0.00     0  00:00           0           0       0.000 gal
  CO-C04-004           JUNCTION      0.00     0.00     0  00:00           0           0       0.000 gal
  CO-C04-005           JUNCTION      0.00     0.00     0  00:00           0           0       0.000 gal
  CO-C04-006           JUNCTION      0.00     0.00     0  00:00           0           0       0.000 gal
  CO-C04-007           JUNCTION      0.00     0.00     0  00:00           0           0       0.000 gal
  CO-C04-008           JUNCTION      0.00     0.00     0  00:00           0           0       0.000 gal
  CO-C04-012           JUNCTION      0.00     0.00     0  00:00           0           0       0.000 gal
  CO-C04-013           JUNCTION      0.00     0.00     0  00:00           0           0       0.000 gal
  CO-C04-014           JUNCTION      0.00     0.00     0  00:00           0           0       0.000 gal
  CO-C05-001           JUNCTION      0.00     0.00     0  00:00           0           0       0.000 gal
  CO-C05-004           JUNCTION      0.00     0.00     0  00:00           0           0       0.000 gal
  CO-C05-006           JUNCTION      0.00     0.00     0  00:00           0           0       0.000 gal
  CO-C05-007           JUNCTION      0.00     0.00     0  00:00           0           0       0.000 gal
  CO-C05-009           JUNCTION      0.00     0.00     0  00:00           0           0       0.000 gal
  CO-C05-010           JUNCTION      0.00     0.00     0  00:00           0           0       0.000 gal
  CO-C05-011           JUNCTION      0.00     0.00     0  00:00           0           0       0.000 gal
  CO-C05-012           JUNCTION      0.00     0.00     0  00:00           0           0       0.000 gal
  CO-C06-004           JUNCTION      0.00     0.00     0  00:00           0           0       0.000 gal
  CO-C06-005           JUNCTION      0.00     0.00     0  00:00           0           0       0.000 gal
  CO-C06-009           JUNCTION      0.00     0.00     0  00:00           0           0       0.000 gal
  CO-C07-001           JUNCTION      0.00     0.00     0  00:00           0           0       0.000 gal
  CO-D01-001           JUNCTION      0.00     0.00     0  00:00           0           0       0.000 gal
  CO-D02-001           JUNCTION      0.00     0.00     0  00:00           0           0       0.000 gal
  CO-D07-058           JUNCTION      0.00     0.00     0  00:00           0           0       0.000 gal
  CO-D08-001           JUNCTION      0.00     0.00     0  00:00           0           0       0.000 gal
  LA_COLINA_D          JUNCTION      0.00  1636.00     0  00:00           0     0.00224    2236.873 gal
  MH-A03-001           JUNCTION      0.00     0.00     0  00:00           0           0       0.000 gal
  MH-A03-002           JUNCTION      0.00     0.00     0  00:00           0           0       0.000 gal
  MH-A03-003           JUNCTION      0.00     0.00     0  00:00           0           0       0.000 gal
  MH-A03-004           JUNCTION      0.00     0.00     0  00:00           0           0       0.000 gal
  MH-A03-005           JUNCTION      0.00     0.00     0  00:00           0           0       0.000 gal
  MH-A03-007           JUNCTION      0.00     0.00     0  00:00           0           0       0.000 gal
  MH-A03-008           JUNCTION      0.00     0.00     0  00:00           0           0       0.000 gal
  MH-A03-009           JUNCTION      0.00     0.00     0  00:00           0           0       0.000 gal
  MH-A03-011           JUNCTION      0.00     0.00     0  00:00           0           0       0.000 gal
  MH-A03-012           JUNCTION      0.00     0.00     0  00:00           0           0       0.000 gal
  MH-A03-013           JUNCTION      0.00     0.00     0  00:00           0           0       0.000 gal
  MH-A03-014           JUNCTION      0.00     0.00     0  00:00           0           0       0.000 gal
  MH-A03-015           JUNCTION      0.00     0.00     0  00:00           0           0       0.000 gal
  MH-A03-016           JUNCTION      0.00     0.00     0  00:00           0           0       0.000 gal
  MH-A03-017           JUNCTION      0.00     0.00     0  00:00           0           0       0.000 gal
  MH-A03-018           JUNCTION      0.00     0.00     0  00:00           0           0       0.000 gal
  MH-A03-019           JUNCTION      0.00     0.00     0  00:00           0           0       0.000 gal
  MH-A04-001           JUNCTION      0.00     0.00     0  00:00           0           0       0.000 gal
  MH-A04-005           JUNCTION      0.00     0.00     0  00:00           0           0       0.000 gal
  MH-A04-007           JUNCTION      0.00     0.00     0  00:00           0           0       0.000 gal
  MH-A04-021           JUNCTION      0.00     0.00     0  00:00           0           0       0.000 gal
  MH-A04-022           JUNCTION      0.00     0.00     0  00:00           0           0       0.000 gal
  MH-A04-023           JUNCTION      0.00     0.00     0  00:00           0           0       0.000 gal
  MH-A04-024           JUNCTION      0.00     0.00     0  00:00           0           0       0.000 gal
[...]
  C5-22                   1.00   1.00  0.00  0.00  0.00  0.00  0.00  0.00  0.00  0.00
  C5-23                   1.00   1.00  0.00  0.00  0.00  0.00  0.00  0.00  0.00  0.00
  C5-25                   1.00   1.00  0.00  0.00  0.00  0.00  0.00  0.00  0.00  0.00
  C5-26                   1.00   1.00  0.00  0.00  0.00  0.00  0.00  0.00  0.00  0.00
  C5-27                   1.00   1.00  0.00  0.00  0.00  0.00  0.00  0.00  0.00  0.00
  C5-28                   1.00   1.00  0.00  0.00  0.00  0.00  0.00  0.00  0.00  0.00
  C5-29                   1.00   1.00  0.00  0.00  0.00  0.00  0.00  0.00  0.00  0.00
  C5-3                    1.00   1.00  0.00  0.00  0.00  0.00  0.00  0.00  0.00  0.00
  C5-30                   1.00   1.00  0.00  0.00  0.00  0.00  0.00  0.00  0.00  0.00
  C5-31                   1.00   1.00  0.00  0.00  0.00  0.00  0.00  0.00  0.00  0.00
  C5-32                   1.00   1.00  0.00  0.00  0.00  0.00  0.00  0.00  0.00  0.00
  C5-36                   1.00   1.00  0.00  0.00  0.00  0.00  0.00  0.00  0.00  0.00
  C5-37                   1.00   1.00  0.00  0.00  0.00  0.00  0.00  0.00  0.00  0.00
  C5-38                   1.00   1.00  0.00  0.00  0.00  0.00  0.00  0.00  0.00  0.00
  C5-39                   1.00   1.00  0.00  0.00  0.00  0.00  0.00  0.00  0.00  0.00
  C5-40                   1.00   1.00  0.00  0.00  0.00  0.00  0.00  0.00  0.00  0.00
  C5-41                   1.00   1.00  0.00  0.00  0.00  0.00  0.00  0.00  0.00  0.00
  C5-42                   1.00   1.00  0.00  0.00  0.00  0.00  0.00  0.00  0.00  0.00
  C5-43                   1.00   1.00  0.00  0.00  0.00  0.00  0.00  0.00  0.00  0.00
  C5-45                   1.00   1.00  0.00  0.00  0.00  0.00  0.00  0.00  0.00  0.00
  C5-46                   1.00   1.00  0.00  0.00  0.00  0.00  0.00  0.00  0.00  0.00
  C5-47                   1.00   1.00  0.00  0.00  0.00  0.00  0.00  0.00  0.00  0.00
  C5-49                   1.00   1.00  0.00  0.00  0.00  0.00  0.00  0.00  0.00  0.00
  C5-5                    1.00   1.00  0.00  0.00  0.00  0.00  0.00  0.00  0.00  0.00
  C5-50                   1.00   1.00  0.00  0.00  0.00  0.00  0.00  0.00  0.00  0.00
  C5-51                   1.00   1.00  0.00  0.00  0.00  0.00  0.00  0.00  0.00  0.00
  C5-52                   1.00   1.00  0.00  0.00  0.00  0.00  0.00  0.00  0.00  0.00
  C5-53                   1.00   1.00  0.00  0.00  0.00  0.00  0.00  0.00  0.00  0.00
  C5-55                   1.00   1.00  0.00  0.00  0.00  0.00  0.00  0.00  0.00  0.00
  C5-56                   1.00   1.00  0.00  0.00  0.00  0.00  0.00  0.00  0.00  0.00
  C5-57                   1.00   1.00  0.00  0.00  0.00  0.00  0.00  0.00  0.00  0.00
  C5-58                   1.00   1.00  0.00  0.00  0.00  0.00  0.00  0.00  0.00  0.00
  C5-59                   1.00   1.00  0.00  0.00  0.00  0.00  0.00  0.00  0.00  0.00
  C5-6                    1.00   1.00  0.00  0.00  0.00  0.00  0.00  0.00  0.00  0.00
  C5-60                   1.00   1.00  0.00  0.00  0.00  0.00  0.00  0.00  0.00  0.00
  C5-61                   1.00   1.00  0.00  0.00  0.00  0.00  0.00  0.00  0.00  0.00
  C5-62                   1.00   1.00  0.00  0.00  0.00  0.00  0.00  0.00  0.00  0.00
  C5-63                   1.00   1.00  0.00  0.00  0.00  0.00  0.00  0.00  0.00  0.00
  C5-64                   1.00   1.00  0.00  0.00  0.00  0.00  0.00  0.00  0.00  0.00
  C5-65                   1.00   1.00  0.00  0.00  0.00  0.00  0.00  0.00  0.00  0.00
  C5-66                   1.00   1.00  0.00  0.00  0.00  0.00  0.00  0.00  0.00  0.00
  C5-67                   1.00   1.00  0.00  0.00  0.00  0.00  0.00  0.00  0.00  0.00
  C5-7                    1.00   1.00  0.00  0.00  0.00  0.00  0.00  0.00  0.00  0.00
  C5-70                   1.00   1.00  0.00  0.00  0.00  0.00  0.00  0.00  0.00  0.00
  C5-71                   1.00   1.00  0.00  0.00  0.00  0.00  0.00  0.00  0.00  0.00
  C5-72                   1.00   1.00  0.00  0.00  0.00  0.00  0.00  0.00  0.00  0.00
  C5-73                   1.00   1.00  0.00  0.00  0.00  0.00  0.00  0.00  0.00  0.00
  C5-74                   1.00   1.00  0.00  0.00  0.00  0.00  0.00  0.00  0.00  0.00
  C5-75                   1.00   1.00  0.00  0.00  0.00  0.00  0.00  0.00  0.00  0.00
  C5-76                   1.00   1.00  0.00  0.00  0.00  0.00  0.00  0.00  0.00  0.00
  C5-77                   1.00   1.00  0.00  0.00  0.00  0.00  0.00  0.00  0.00  0.00
  C5-78                   1.00   1.00  0.00  0.00  0.00  0.00  0.00  0.00  0.00  0.00
  C5-79                   1.00   1.00  0.00  0.00  0.00  0.00  0.00  0.00  0.00  0.00
  C5-8                    1.00   1.00  0.00  0.00  0.00  0.00  0.00  0.00  0.00  0.00
  C5-80                   1.00   1.00  0.00  0.00  0.00  0.00  0.00  0.00  0.00  0.00
  C5-81                   1.00   1.00  0.00  0.00  0.00  0.00  0.00  0.00  0.00  0.00
  C5-82                   1.00   1.00  0.00  0.00  0.00  0.00  0.00  0.00  0.00  0.00
  C5-83                   1.00   1.00  0.00  0.00  0.00  0.00  0.00  0.00  0.00  0.00
  C5-84                   1.00   1.00  0.00  0.00  0.00  0.00  0.00  0.00  0.00  0.00
  C5-85                   1.00   1.00  0.00  0.00  0.00  0.00  0.00  0.00  0.00  0.00
  C5-86                   1.00   1.00  0.00  0.00  0.00  0.00  0.00  0.00  0.00  0.00
  C5-87                   1.00   1.00  0.00  0.00  0.00  0.00  0.00  0.00  0.00  0.00
  C5-88                   1.00   1.00  0.00  0.00  0.00  0.00  0.00  0.00  0.00  0.00
  C5-89                   1.00   1.00  0.00  0.00  0.00  0.00  0.00  0.00  0.00  0.00
  C5-9                    1.00   1.00  0.00  0.00  0.00  0.00  0.00  0.00  0.00  0.00
  C5-90                   1.00   1.00  0.00  0.00  0.00  0.00  0.00  0.00  0.00  0.00
  C5-91                   1.00   1.00  0.00  0.00  0.00  0.00  0.00  0.00  0.00  0.00
  C5-92                   1.00   1.00  0.00  0.00  0.00  0.00  0.00  0.00  0.00  0.00
  C5-93                   1.00   1.00  0.00  0.00  0.00  0.00  0.00  0.00  0.00  0.00
  C5-94                   1.00   1.00  0.00  0.00  0.00  0.00  0.00  0.00  0.00  0.00
  C5-95                   1.00   1.00  0.00  0.00  0.00  0.00  0.00  0.00  0.00  0.00
  C5-96                   1.00   1.00  0.00  0.00  0.00  0.00  0.00  0.00  0.00  0.00
  C5-97                   1.00   1.00  0.00  0.00  0.00  0.00  0.00  0.00  0.00  0.00
  C5-98                   1.00   1.00  0.00  0.00  0.00  0.00  0.00  0.00  0.00  0.00
  C5-99                   1.00   1.00  0.00  0.00  0.00  0.00  0.00  0.00  0.00  0.00
  C6-1                    1.00   1.00  0.00  0.00  0.00  0.00  0.00  0.00  0.00  0.00
  C6-10                   1.00   1.00  0.00  0.00  0.00  0.00  0.00  0.00  0.00  0.00
  C6-11                   1.00   1.00  0.00  0.00  0.00  0.00  0.00  0.00  0.00  0.00
  C6-12                   1.00   1.00  0.00  0.00  0.00  0.00  0.00  0.00  0.00  0.00
  C6-13                   1.00   1.00  0.00  0.00  0.00  0.00  0.00  0.00  0.00  0.00
  C6-14                   1.00   1.00  0.00  0.00  0.00  0.00  0.00  0.00  0.00  0.00
  C6-15                   1.00   1.00  0.00  0.00  0.00  0.00  0.00  0.00  0.00  0.00
  C6-16                   1.00   1.00  0.00  0.00  0.00  0.00  0.00  0.00  0.00  0.00
  C6-19                   1.00   1.00  0.00  0.00  0.00  0.00  0.00  0.00  0.00  0.00
  C6-2                    1.00   1.00  0.00  0.00  0.00  0.00  0.00  0.00  0.00  0.00
  C6-20                   1.00   1.00  0.00  0.00  0.00  0.00  0.00  0.00  0.00  0.00
  C6-21                   1.00   1.00  0.00  0.00  0.00  0.00  0.00  0.00  0.00  0.00
  C6-26                   1.00   1.00  0.00  0.00  0.00  0.00  0.00  0.00  0.00  0.00
  C6-27                   1.00   1.00  0.00  0.00  0.00  0.00  0.00  0.00  0.00  0.00
  C6-28                   1.00   1.00  0.00  0.00  0.00  0.00  0.00  0.00  0.00  0.00
  C6-29                   1.00   1.00  0.00  0.00  0.00  0.00  0.00  0.00  0.00  0.00
  C6-3                    1.00   1.00  0.00  0.00  0.00  0.00  0.00  0.00  0.00  0.00
  C6-30                   1.00   1.00  0.00  0.00  0.00  0.00  0.00  0.00  0.00  0.00
  C6-31                   1.00   1.00  0.00  0.00  0.00  0.00  0.00  0.00  0.00  0.00
  C6-35                   1.00   1.00  0.00  0.00  0.00  0.00  0.00  0.00  0.00  0.00
  C6-36                   1.00   1.00  0.00  0.00  0.00  0.00  0.00  0.00  0.00  0.00
  C6-37                   1.00   1.00  0.00  0.00  0.00  0.00  0.00  0.00  0.00  0.00
  C6-38                   1.00   1.00  0.00  0.00  0.00  0.00  0.00  0.00  0.00  0.00
  C6-39                   1.00   1.00  0.00  0.00  0.00  0.00  0.00  0.00  0.00  0.00
  C6-4                    1.00   1.00  0.00  0.00  0.00  0.00  0.00  0.00  0.00  0.00
  C6-40                   1.00   1.00  0.00  0.00  0.00  0.00  0.00  0.00  0.00  0.00
  C6-41                   1.00   1.00  0.00  0.00  0.00  0.00  0.00  0.00  0.00  0.00
  C6-42                   1.00   1.00  0.00  0.00  0.00  0.00  0.00  0.00  0.00  0.00
  C6-5                    1.00   1.00  0.00  0.00  0.00  0.00  0.00  0.00  0.00  0.00
  C6-6                    1.00   1.00  0.00  0.00  0.00  0.00  0.00  0.00  0.00  0.00
  C6-7                    1.00   1.00  0.00  0.00  0.00  0.00  0.00  0.00  0.00  0.00
  C6-8                    1.00   1.00  0.00  0.00  0.00  0.00  0.00  0.00  0.00  0.00
  C6-9                    1.00   1.00  0.00  0.00  0.00  0.00  0.00  0.00  0.00  0.00
  C7-10                   1.00   1.00  0.00  0.00  0.00  0.00  0.00  0.00  0.00  0.00
  C7-11                   1.00   1.00  0.00  0.00  0.00  0.00  0.00  0.00  0.00  0.00
  C7-12                   1.00   1.00  0.00  0.00  0.00  0.00  0.00  0.00  0.00  0.00
  C7-13                   1.00   1.00  0.00  0.00  0.00  0.00  0.00  0.00  0.00  0.00
  C7-14                   1.00   1.00  0.00  0.00  0.00  0.00  0.00  0.00  0.00  0.00
  C7-17                   1.00   1.00  0.00  0.00  0.00  0.00  0.00  0.00  0.00  0.00
  C7-18                   1.00   1.00  0.00  0.00  0.00  0.00  0.00  0.00  0.00  0.00
  C7-19                   1.00   1.00  0.00  0.00  0.00  0.00  0.00  0.00  0.00  0.00
  C7-2                    1.00   1.00  0.00  0.00  0.00  0.00  0.00  0.00  0.00  0.00
  C7-20                   1.00   1.00  0.00  0.00  0.00  0.00  0.00  0.00  0.00  0.00
  C7-3                    1.00   1.00  0.00  0.00  0.00  0.00  0.00  0.00  0.00  0.00
  C7-4                    1.00   1.00  0.00  0.00  0.00  0.00  0.00  0.00  0.00  0.00
  C7-5                    1.00   1.00  0.00  0.00  0.00  0.00  0.00  0.00  0.00  0.00
  C7-6                    1.00   1.00  0.00  0.00  0.00  0.00  0.00  0.00  0.00  0.00
  C7-8                    1.00   1.00  0.00  0.00  0.00  0.00  0.00  0.00  0.00  0.00
  C8-15                   1.00   1.00  0.00  0.00  0.00  0.00  0.00  0.00  0.00  0.00
  C8-16                   1.00   1.00  0.00  0.00  0.00  0.00  0.00  0.00  0.00  0.00
  C8-17                   1.00   1.00  0.00  0.00  0.00  0.00  0.00  0.00  0.00  0.00
  C8-21                   1.00   1.00  0.00  0.00  0.00  0.00  0.00  0.00  0.00  0.00
  C8-22                   1.00   1.00  0.00  0.00  0.00  0.00  0.00  0.00  0.00  0.00
  C8-23                   1.00   1.00  0.00  0.00  0.00  0.00  0.00  0.00  0.00  0.00
  C8-35                   1.00   1.00  0.00  0.00  0.00  0.00  0.00  0.00  0.00  0.00
  C8-6                    1.00   1.00  0.00  0.00  0.00  0.00  0.00  0.00  0.00  0.00
  C8-7                    1.00   1.00  0.00  0.00  0.00  0.00  0.00  0.00  0.00  0.00
  D1-2                    1.00   1.00  0.00  0.00  0.00  0.00  0.00  0.00  0.00  0.00
  D1-3                    1.00   1.00  0.00  0.00  0.00  0.00  0.00  0.00  0.00  0.00
  D1-4                    1.00   1.00  0.00  0.00  0.00  0.00  0.00  0.00  0.00  0.00
  D1-5                    1.00   1.00  0.00  0.00  0.00  0.00  0.00  0.00  0.00  0.00
  D1-6                    1.00   1.00  0.00  0.00  0.00  0.00  0.00  0.00  0.00  0.00
  D2-10                   1.00   1.00  0.00  0.00  0.00  0.00  0.00  0.00  0.00  0.00
  D2-11                   1.00   1.00  0.00  0.00  0.00  0.00  0.00  0.00  0.00  0.00
  D2-12                   1.00   1.00  0.00  0.00  0.00  0.00  0.00  0.00  0.00  0.00
  D2-13                   1.00   1.00  0.00  0.00  0.00  0.00  0.00  0.00  0.00  0.00
  D2-14                   1.00   1.00  0.00  0.00  0.00  0.00  0.00  0.00  0.00  0.00
  D2-15                   1.00   1.00  0.00  0.00  0.00  0.00  0.00  0.00  0.00  0.00
  D2-16                   1.00   1.00  0.00  0.00  0.00  0.00  0.00  0.00  0.00  0.00
  D2-17                   1.00   1.00  0.00  0.00  0.00  0.00  0.00  0.00  0.00  0.00
  D2-18                   1.00   1.00  0.00  0.00  0.00  0.00  0.00  0.00  0.00  0.00
  D2-19                   1.00   1.00  0.00  0.00  0.00  0.00  0.00  0.00  0.00  0.00
  D2-20                   1.00   1.00  0.00  0.00  0.00  0.00  0.00  0.00  0.00  0.00
  D7-127                  1.00   1.00  0.00  0.00  0.00  0.00  0.00  0.00  0.00  0.00
  D7-128                  1.00   1.00  0.00  0.00  0.00  0.00  0.00  0.00  0.00  0.00
  D7-129                  1.00   1.00  0.00  0.00  0.00  0.00  0.00  0.00  0.00  0.00
  D7-131                  1.00   1.00  0.00  0.00  0.00  0.00  0.00  0.00  0.00  0.00
  D7-133                  1.00   1.00  0.00  0.00  0.00  0.00  0.00  0.00  0.00  0.00
  D7-63                   1.00   1.00  0.00  0.00  0.00  0.00  0.00  0.00  0.00  0.00
  D8-138                  1.00   1.00  0.00  0.00  0.00  0.00  0.00  0.00  0.00  0.00
  D8-139                  1.00   1.00  0.00  0.00  0.00  0.00  0.00  0.00  0.00  0.00
  D8-140                  1.00   1.00  0.00  0.00  0.00  0.00  0.00  0.00  0.00  0.00
  D8-141                  1.00   1.00  0.00  0.00  0.00  0.00  0.00  0.00  0.00  0.00
  D8-142                  1.00   1.00  0.00  0.00  0.00  0.00  0.00  0.00  0.00  0.00
  D8-144                  1.00   1.00  0.00  0.00  0.00  0.00  0.00  0.00  0.00  0.00
  D8-150                  1.00   1.00  0.00  0.00  0.00  0.00  0.00  0.00  0.00  0.00
  D8-151                  1.00   1.00  0.00  0.00  0.00  0.00  0.00  0.00  0.00  0.00
  D8-152                  1.00   1.00  0.00  0.00  0.00  0.00  0.00  0.00  0.00  0.00
  D8-163                  1.00   1.00  0.00  0.00  0.00  0.00  0.00  0.00  0.00  0.00
  D8-168                  1.00   1.00  0.00  0.00  0.00  0.00  0.00  0.00  0.00  0.00
  D8-169                  1.00   1.00  0.00  0.00  0.00  0.00  0.00  0.00  0.00  0.00
  D8-170                  1.00   1.00  0.00  0.00  0.00  0.00  0.00  0.00  0.00  0.00
  D8-171                  1.00   1.00  0.00  0.00  0.00  0.00  0.00  0.00  0.00  0.00
  D8-3                    1.00   1.00  0.00  0.00  0.00  0.00  0.00  0.00  0.00  0.00
  D8-36                   1.00   1.00  0.00  0.00  0.00  0.00  0.00  0.00  0.00  0.00
  D8-39                   1.00   1.00  0.00  0.00  0.00  0.00  0.00  0.00  0.00  0.00
  D8-4                    1.00   1.00  0.00  0.00  0.00  0.00  0.00  0.00  0.00  0.00
  D8-40                   1.00   1.00  0.00  0.00  0.00  0.00  0.00  0.00  0.00  0.00
  D8-42                   1.00   1.00  0.00  0.00  0.00  0.00  0.00  0.00  0.00  0.00
  _IMP-B4-88              1.00   1.00  0.00  0.00  0.00  0.00  0.00  0.00  0.00  0.00
  _IMP-B5-61              1.00   1.00  0.00  0.00  0.00  0.00  0.00  0.00  0.00  0.00
  _IMP-B5-67              1.00   1.00  0.00  0.00  0.00  0.00  0.00  0.00  0.00  0.00
  _IMP-B5-68              1.00   1.00  0.00  0.00  0.00  0.00  0.00  0.00  0.00  0.00
  _IMP-B5-75              1.00   1.00  0.00  0.00  0.00  0.00  0.00  0.00  0.00  0.00
  _IMP-B5-76              1.00   1.00  0.00  0.00  0.00  0.00  0.00  0.00  0.00  0.00
  _IMP-B5-93              1.00   1.00  0.00  0.00  0.00  0.00  0.00  0.00  0.00  0.00
  _IMP-B6-19              1.00   1.00  0.00  0.00  0.00  0.00  0.00  0.00  0.00  0.00
  _IMP-B6-27              1.00   1.00  0.00  0.00  0.00  0.00  0.00  0.00  0.00  0.00
  _IMP-B7-43              1.00   1.00  0.00  0.00  0.00  0.00  0.00  0.00  0.00  0.00
  _IMP-C4-108             1.00   1.00  0.00  0.00  0.00  0.00  0.00  0.00  0.00  0.00
  _IMP-C4-110             1.00   1.00  0.00  0.00  0.00  0.00  0.00  0.00  0.00  0.00
  _IMP-C4-34              1.00   1.00  0.00  0.00  0.00  0.00  0.00  0.00  0.00  0.00
  _IMP-C4-37              1.00   1.00  0.00  0.00  0.00  0.00  0.00  0.00  0.00  0.00
  _IMP-C4-96              1.00   1.00  0.00  0.00  0.00  0.00  0.00  0.00  0.00  0.00
  _IMP-C5-29              1.00   1.00  0.00  0.00  0.00  0.00  0.00  0.00  0.00  0.00
  _IMP-C5-30              1.00   1.00  0.00  0.00  0.00  0.00  0.00  0.00  0.00  0.00
  _IMP-C5-56              1.00   1.00  0.00  0.00  0.00  0.00  0.00  0.00  0.00  0.00
  _IMP-C6-39              1.00   1.00  0.00  0.00  0.00  0.00  0.00  0.00  0.00  0.00
  _IMP-C7-10              1.00   1.00  0.00  0.00  0.00  0.00  0.00  0.00  0.00  0.00
  _IMP-C7-11              1.00   1.00  0.00  0.00  0.00  0.00  0.00  0.00  0.00  0.00
  _IMP-C7-12              1.00   1.00  0.00  0.00  0.00  0.00  0.00  0.00  0.00  0.00
  _IMP-C7-13              1.00   1.00  0.00  0.00  0.00  0.00  0.00  0.00  0.00  0.00
  _IMP-C7-17              1.00   1.00  0.00  0.00  0.00  0.00  0.00  0.00  0.00  0.00
  _IMP-C7-18              1.00   1.00  0.00  0.00  0.00  0.00  0.00  0.00  0.00  0.00
  _IMP-C7-2               1.00   1.00  0.00  0.00  0.00  0.00  0.00  0.00  0.00  0.00
  _IMP-C7-8               1.00   1.00  0.00  0.00  0.00  0.00  0.00  0.00  0.00  0.00
  _IMP-C8-17              1.00   1.00  0.00  0.00  0.00  0.00  0.00  0.00  0.00  0.00
  _IMP-D8-171             1.00   1.00  0.00  0.00  0.00  0.00  0.00  0.00  0.00  0.00
  _IMP-HITCHCOCK          1.00   1.00  0.00  0.00  0.00  0.00  0.00  0.00  0.00  0.00
  _IMP-STATE              1.00   1.00  0.00  0.00  0.00  0.00  0.00  0.00  0.00  0.00
  
  
  *************************
  Conduit Surcharge Summary
  *************************
  
  ----------------------------------------------------------------------------
                                                           Hours        Hours 
                         --------- Hours Full --------   Above Full   Capacity
  Conduit                Both Ends  Upstream  Dnstream   Normal Flow   Limited
  ----------------------------------------------------------------------------
  A4-15                       0.02      0.02     72.00      0.01         0.01
  A4-24                       0.01      0.01      0.01      0.01         0.01
  A4-28                       0.01      0.01      0.01      0.01         0.01
  A5-3                       71.96     71.96     71.99      0.01         0.01
  A5-4                        0.01      0.01     71.95      0.01         0.01
  B5-69                      72.00     72.00     72.00      0.02         0.01
  B5-80                       0.01      0.01     71.99      0.01         0.01
  
  
  ***************
  Pumping Summary
  ***************
  
  ---------------------------------------------------------------------------------------------------------
                                                  Min       Avg       Max     Total     Power    % Time Off
                        Percent   Number of      Flow      Flow      Flow    Volume     Usage    Pump Curve
  Pump                 Utilized   Start-Ups       GPM       GPM       GPM  10^6 gal     Kw-hr    Low   High
  ---------------------------------------------------------------------------------------------------------
  IMP_COLINA               0.00           0      0.00      0.00      0.00     0.000      0.00    0.0    0.0
  LA_COLINA_1              0.05           1      0.00    794.76    800.00     0.002      0.00    0.0    0.0
  LA_COLINA_2              0.02           1      0.00    835.44    836.00     0.001      0.00    0.0    0.0
  VIA_LUCERO_1             0.00           0      0.00      0.00      0.00     0.000      0.00    0.0    0.0
  VIA_LUCERO_2             0.00           0      0.00      0.00      0.00     0.000      0.00    0.0    0.0
  

  Analysis begun on:  Fri Mar  6 12:34:51 2026
  Analysis ended on:  Fri Mar  6 12:35:00 2026
  Total elapsed time: 00:00:09