
  EPA STORM WATER MANAGEMENT MODEL - VERSION 5.2 (Build 5.2.4)
  ------------------------------------------------------------

  
  ERROR 211: invalid number  at line 12842 of [XSECT] section:
  C_10116000_001700 MODBASKETHANDLE 15.000000        40.000000  20.000000  0.000000   1          0         

  
  ERROR 211: invalid number  at line 13990 of [XSECT] section:
  C_11500000_002349 MODBASKETHANDLE 7.000000         20.000000  10.000000  0.000000   1          0         

  
  ERROR 211: invalid number  at line 14965 of [XSECT] section:
  C_12706000_004083 MODBASKETHANDLE 3.330000         14.000000  7.000000   0.000000   1          0         

  
  ERROR 211: invalid number  at line 15013 of [XSECT] section:
  C_12707000_000162 MODBASKETHANDLE 8.760000         23.000000  11.500000  0.000000   1          0         


  Analysis begun on:  Fri Mar  6 12:35:01 2026
  Analysis ended on:  Fri Mar  6 12:35:02 2026
  Total elapsed time: 00:00:01