
  EPA STORM WATER MANAGEMENT MODEL - VERSION 5.2 (Build 5.2.4)
  ------------------------------------------------------------

  Duplicated from DELCORA 2015.inp, with further modifications including: 
  1. Put the abandoned 54" West End Interceptor in service 
     based on drawing "C-101- ASBUILT_model update.pdf" 
  WARNING 04: minimum elevation drop used for Conduit 1
  WARNING 04: minimum elevation drop used for Conduit 2
  WARNING 04: minimum elevation drop used for Conduit C20722
  WARNING 04: minimum elevation drop used for Conduit C60805
  WARNING 04: minimum elevation drop used for Conduit C735
  WARNING 04: minimum elevation drop used for Conduit C752
  WARNING 04: minimum elevation drop used for Conduit C753
  WARNING 04: minimum elevation drop used for Conduit P212
  
  ****************
  Analysis Options
  ****************
  Flow Units ............... CFS
  Process Models:
    Rainfall/Runoff ........ YES
    RDII ................... NO
    Snowmelt ............... NO
    Groundwater ............ NO
    Flow Routing ........... YES
    Ponding Allowed ........ YES
    Water Quality .......... NO
  Infiltration Method ...... HORTON
  Flow Routing Method ...... DYNWAVE
  Surcharge Method ......... EXTRAN
  Starting Date ............ 07/17/1994 00:00:00
  Ending Date .............. 07/20/1994 00:00:00
  Antecedent Dry Days ...... 0.0
  Report Time Step ......... 00:05:00
  Wet Time Step ............ 00:01:00
  Dry Time Step ............ 01:00:00
  Routing Time Step ........ 5.00 sec
  Variable Time Step ....... YES
  Maximum Trials ........... 8
  Number of Threads ........ 1
  Head Tolerance ........... 0.005000 ft
  
  
  **************************        Volume         Depth
  Runoff Quantity Continuity     acre-feet        inches
  **************************     ---------       -------
  Total Precipitation ......       436.971         3.450
  Evaporation Loss .........         0.000         0.000
  Infiltration Loss ........        21.421         0.169
  Surface Runoff ...........       411.899         3.252
  Final Storage ............         3.672         0.029
  Continuity Error (%) .....        -0.005
  
  
  **************************        Volume        Volume
  Flow Routing Continuity        acre-feet      10^6 gal
  **************************     ---------     ---------
  Dry Weather Inflow .......        64.532        21.029
  Wet Weather Inflow .......       411.899       134.223
  Groundwater Inflow .......         0.000         0.000
  RDII Inflow ..............         0.000         0.000
  External Inflow ..........         0.161         0.052
  External Outflow .........       356.375       116.130
  Flooding Loss ............       118.024        38.460
  Evaporation Loss .........         0.000         0.000
  Exfiltration Loss ........         0.000         0.000
  Initial Stored Volume ....         0.021         0.007
  Final Stored Volume ......         1.917         0.625
  Continuity Error (%) .....         0.062
  
  
  *************************
  Highest Continuity Errors
  *************************
  Node MH-2699 (4.88%)
  Node MH-2543 (1.56%)
  Node MH-3070 (1.50%)
  Node MH-2547 (-1.47%)
  Node MH-1368 (1.46%)
  
  
  ***************************
  Time-Step Critical Elements
  ***************************
  Link C1171007 (93.95%)
  Link C71201A (4.24%)
  Link C414040300 (1.27%)
  
  
  ********************************
  Highest Flow Instability Indexes
  ********************************
  Link C414040300 (6)
  Link C520121312 (6)
  Link Regulator_05_0905A_@11701-11701A (6)
  Link C5201234 (6)
  Link C703 (5)
  
  
  *********************************
  Most Frequent Nonconverging Nodes
  *********************************
  Node 101 (4.11%)
  Node NCPS (4.11%)
  Node NCPSE (4.11%)
  Node NREG02 (4.11%)
  Node NREG03 (4.11%)
  
  
  *************************
  Routing Time Step Summary
  *************************
  Minimum Time Step           :     0.00 sec
  Average Time Step           :     0.50 sec
  Maximum Time Step           :     5.00 sec
  % of Time in Steady State   :     0.00
  Average Iterations per Step :     2.29
  % of Steps Not Converging   :     4.11
  Time Step Frequencies       :
      5.000 -  3.155 sec      :     0.00 %
      3.155 -  1.991 sec      :     0.00 %
      1.991 -  1.256 sec      :     0.00 %
      1.256 -  0.792 sec      :     0.00 %
      0.792 -  0.500 sec      :    99.99 %
  
  
  ***************************
  Subcatchment Runoff Summary
  ***************************
  
  ------------------------------------------------------------------------------------------------------------------------------
                            Total      Total      Total      Total     Imperv       Perv      Total       Total     Peak  Runoff
                           Precip      Runon       Evap      Infil     Runoff     Runoff     Runoff      Runoff   Runoff   Coeff
  Subcatchment                 in         in         in         in         in         in         in    10^6 gal      CFS
  ------------------------------------------------------------------------------------------------------------------------------
  02A                        3.45       0.00       0.00       0.17       2.57       0.68       3.25        1.83    30.74   0.941
  02B                        3.45       0.00       0.00       0.15       2.70       0.58       3.27        2.82    47.20   0.949
  02C                        3.45       0.00       0.00       0.16       2.56       0.70       3.26        0.03     0.45   0.944
  03B                        3.45       0.00       0.00       0.16       2.63       0.64       3.27        1.94    32.61   0.947
  03C                        3.45       0.00       0.00       0.14       2.72       0.56       3.28        4.14    69.30   0.951
  03D                        3.45       0.00       0.00       0.16       2.60       0.66       3.26        1.64    27.54   0.946
  03E                        3.45       0.00       0.00       0.14       2.64       0.64       3.28        0.26     4.32   0.951
  04A                        3.45       0.00       0.00       0.10       2.89       0.43       3.32        0.97    16.17   0.962
  04B                        3.45       0.00       0.00       0.14       2.71       0.57       3.28        2.01    33.71   0.951
  04C                        3.45       0.00       0.00       0.15       2.63       0.64       3.27        0.22     3.72   0.947
  05C                        3.45       0.00       0.00       0.15       2.67       0.60       3.28        2.85    47.70   0.949
  05D                        3.45       0.00       0.00       0.15       2.63       0.63       3.27        2.58    43.33   0.947
  05E                        3.45       0.00       0.00       0.17       2.60       0.65       3.25        2.52    42.39   0.942
  08A                        3.45       0.00       0.00       0.21       2.38       0.84       3.22        7.27   123.28   0.932
  08B                        3.45       0.00       0.00       0.20       2.41       0.82       3.23        7.90   133.75   0.935
  08D                        3.45       0.00       0.00       0.17       2.60       0.66       3.25        0.34     5.65   0.943
  09A                        3.45       0.00       0.00       0.17       2.56       0.69       3.25        2.59    43.58   0.943
  10A                        3.45       0.00       0.00       0.16       2.59       0.67       3.26        4.13    69.35   0.945
  11A                        3.45       0.00       0.00       0.16       2.60       0.66       3.26        1.05    17.56   0.945
  11B                        3.45       0.00       0.00       0.16       2.61       0.65       3.26        2.78    46.75   0.946
  11C                        3.45       0.00       0.00       0.16       2.60       0.67       3.27        0.56     9.38   0.947
  11D                        3.45       0.00       0.00       0.16       2.56       0.70       3.26        0.22     3.72   0.944
  12A                        3.45       0.00       0.00       0.11       2.84       0.47       3.31        0.30     4.94   0.960
  13A                        3.45       0.00       0.00       0.06       3.12       0.24       3.36        2.31    37.99   0.974
  13B                        3.45       0.00       0.00       0.04       3.19       0.18       3.37        1.80    29.66   0.978
  13C                        3.45       0.00       0.00       0.11       2.83       0.48       3.31        0.65    10.77   0.958
  14A                        3.45       0.00       0.00       0.13       2.73       0.55       3.29        3.69    61.77   0.953
  14B                        3.45       0.00       0.00       0.16       2.58       0.68       3.26        1.05    17.56   0.946
  14C                        3.45       0.00       0.00       0.14       2.66       0.62       3.28        0.93    15.65   0.950
  14D                        3.45       0.00       0.00       0.12       2.77       0.53       3.30        0.21     3.58   0.955
  15A                        3.45       0.00       0.00       0.33       1.80       1.30       3.10        0.72    12.59   0.899
  16A                        3.45       0.00       0.00       0.15       2.59       0.67       3.27        0.61    10.27   0.947
  16/17A                     3.45       0.00       0.00       0.14       2.72       0.56       3.28        3.24    54.23   0.950
  16/17B                     3.45       0.00       0.00       0.12       2.79       0.50       3.30        3.71    61.83   0.956
  16/17C                     3.45       0.00       0.00       0.16       2.60       0.66       3.26        1.52    25.60   0.946
  17A                        3.45       0.00       0.00       0.15       2.62       0.65       3.27        0.68    11.32   0.949
  18A                        3.45       0.00       0.00       0.03       3.24       0.14       3.38        2.50    40.99   0.980
  18B                        3.45       0.00       0.00       0.16       2.56       0.70       3.26        0.43     7.14   0.946
  19B                        3.45       0.00       0.00       0.21       2.38       0.84       3.22        6.42   108.91   0.933
  19C                        3.45       0.00       0.00       0.13       2.77       0.53       3.29       12.36   206.37   0.955
  19D                        3.45       0.00       0.00       0.22       2.37       0.83       3.20        6.21   105.59   0.928
  19E                        3.45       0.00       0.00       0.17       2.56       0.69       3.25        3.20    53.84   0.943
  19F                        3.45       0.00       0.00       0.17       2.52       0.74       3.25        3.41    57.36   0.942
  19G                        3.45       0.00       0.00       0.16       2.56       0.70       3.26        0.54     9.07   0.945
  20A                        3.45       0.00       0.00       0.17       2.53       0.72       3.25        1.13    19.03   0.943
  21A                        3.45       0.00       0.00       0.07       3.04       0.30       3.34        1.66    27.40   0.969
  22A                        3.45       0.00       0.00       0.08       2.96       0.37       3.33        1.57    25.94   0.966
  23A                        3.45       0.00       0.00       0.03       3.24       0.14       3.38        0.84    13.72   0.981
  24A                        3.45       0.00       0.00       0.10       2.88       0.43       3.32        0.55     9.13   0.961
  25A                        3.45       0.00       0.00       0.13       2.73       0.56       3.29        2.11    35.22   0.954
  26A                        3.45       0.00       0.00       0.13       2.74       0.55       3.29        1.63    27.16   0.954
  26B                        3.45       0.00       0.00       0.15       2.63       0.64       3.27        0.76    12.81   0.949
  SC1                        3.45       0.00       0.00       0.22       2.42       0.78       3.21        4.27    72.19   0.929
  BS2                        3.45       0.00       0.00       0.22       2.56       0.64       3.20        1.93    29.23   0.927
  BS3                        3.45       0.00       0.00       0.14       2.82       0.46       3.27        1.26    18.80   0.949
  DR1                        3.45       0.00       0.00       0.17       2.59       0.67       3.26        0.89    15.02   0.944
  PS1                        3.45       0.00       0.00       0.16       2.57       0.70       3.26        0.26     4.31   0.946
  PS2                        3.45       0.00       0.00       0.16       2.56       0.70       3.26        0.30     5.06   0.945
  CCW1                       3.45       0.00       0.00       0.08       2.99       0.35       3.34        1.71    28.35   0.967
  CCW2                       3.45       0.00       0.00       0.16       2.57       0.69       3.26        0.55     9.22   0.946
  EA1                        3.45       0.00       0.00       0.04       3.17       0.20       3.37        0.35     5.72   0.977
  RC1                        3.45       0.00       0.00       0.16       2.54       0.72       3.26        0.19     3.27   0.944
  RC10                       3.45       0.00       0.00       1.52       1.16       0.76       1.92        0.54    10.51   0.556
  31A                        3.45       0.00       0.00       0.10       2.90       0.42       3.32        0.53     8.84   0.963
  07A_new                    3.45       0.00       0.00       0.17       2.58       0.67       3.25        1.13    19.02   0.942
  07B_new                    3.45       0.00       0.00       0.52       1.27       1.64       2.92        1.46    25.59   0.845
  07C_new                    3.45       0.00       0.00       0.16       2.64       0.62       3.26        1.44    24.20   0.945
  
  
  ******************
  Node Depth Summary
  ******************
  
  ---------------------------------------------------------------------------------
                                 Average  Maximum  Maximum  Time of Max    Reported
                                   Depth    Depth      HGL   Occurrence   Max Depth
  Node                 Type         Feet     Feet     Feet  days hr:min        Feet
  ---------------------------------------------------------------------------------
  MH-1000              JUNCTION     0.27     2.24     6.24     1  10:01        2.22
  MH-1001              JUNCTION     0.29     9.55    19.85     1  08:10        5.53
  MH-1002              JUNCTION     0.37     6.67    10.65     1  08:34        6.66
  MH-1005              JUNCTION     0.12     2.47     8.27     1  08:06        1.85
  MH-1007              JUNCTION     0.39     6.72    10.67     1  08:58        6.69
  MH-1008              JUNCTION     0.29     9.01    15.17     1  08:28        9.00
  MH-1009              JUNCTION     0.35     9.96    15.59     1  08:53        9.94
  MH-1010              JUNCTION     1.08    11.79    13.09     1  07:38       11.25
  MH-1011              JUNCTION     0.78    10.58    12.75     1  08:34       10.55
  MH-1017              JUNCTION     1.16    11.34    12.55     1  08:19       11.31
  MH-1023              JUNCTION     0.56    10.60    12.60     1  08:33       10.58
  MH-1024              JUNCTION     1.24    11.42    12.54     1  08:46       11.40
  MH-1027              JUNCTION     1.26    11.43    12.50     1  08:47       11.39
  MH-1032              JUNCTION     1.30     3.86    -1.38     1  09:00        3.82
  MH-1036              JUNCTION     0.44    10.86    14.67     1  08:19       10.86
  MH-1041              JUNCTION     0.32     9.12    17.54     1  08:10        5.98
  MH-1043              JUNCTION     1.28    11.43    12.47     1  08:49       11.40
  MH-1049              JUNCTION     0.23     5.71    21.15     1  08:10        5.71
  MH-1057              JUNCTION     0.42    11.05    21.13     1  08:06       10.36
  MH-1060              JUNCTION     0.45    10.84    14.61     1  08:44       10.82
  MH-1062              JUNCTION     0.10     1.19    45.96     1  09:00        1.19
  MH-1064              JUNCTION     0.52    13.35    21.06     1  08:08       13.35
  MH-1067              JUNCTION     0.18     2.59    19.44     1  09:00        2.59
  MH-107               JUNCTION     0.09     5.58    99.06     1  10:20        2.14
  MH-1070              JUNCTION     0.30     6.87    10.68     1  08:34        6.85
  MH-1075              JUNCTION     1.31    11.46    12.44     1  08:56       11.42
  MH-1077              JUNCTION     0.27     7.34    12.54     1  08:10        6.86
  MH-1085              JUNCTION     1.44     3.82    -1.65     1  09:48        3.80
  MH-1090              JUNCTION     1.35    11.47    12.40     1  08:19       11.43
  MH-1092              JUNCTION     0.66    10.32    11.64     1  08:10        9.95
  MH-1095              JUNCTION     0.08     1.00    13.93     1  09:00        1.00
  MH-1098              JUNCTION     1.32    11.19    12.08     1  08:54       11.14
  MH-1098A             JUNCTION     1.30    10.98    11.85     1  08:32       10.94
  MH-1104              JUNCTION     0.35     1.33    12.77     1  09:00        1.33
  MH-1106              JUNCTION     0.33     7.47    10.68     1  08:34        7.44
  MH-1107              JUNCTION     0.02     0.30    12.04     1  09:00        0.30
  MH-1108              JUNCTION     0.32     7.46    10.66     1  08:46        7.42
  MH-1109              JUNCTION     0.55     9.82    12.29     1  08:10        9.36
  MH-1114              JUNCTION     1.56    15.98    21.38     1  08:10        8.93
  MH-1119              JUNCTION     0.32     4.26     5.19     1  08:48        4.26
  MH-1122              JUNCTION     1.06     3.20    -2.11     1  09:02        3.19
  MH-1123              JUNCTION     1.24    10.53    11.35     1  08:34       10.51
  MH-1126              JUNCTION     0.35    10.12    13.06     1  07:26        9.14
  MH-1128              JUNCTION     0.33    10.84    31.86     1  08:07        9.15
  MH-1130              JUNCTION     0.88     7.64     9.89     1  08:38        7.60
  MH-1137              JUNCTION     0.29    15.15    21.82     1  08:10        6.40
  MH-1138              JUNCTION     0.35    12.40    37.38     1  08:07       12.00
  MH-1140              JUNCTION     0.98     9.94    10.78     1  08:47        9.89
  MH-1141              JUNCTION     0.25     2.29    14.98     1  09:00        2.29
  MH-1145              JUNCTION     0.34     9.23    28.99     1  08:07        7.71
  MH-1147              JUNCTION     0.13     1.58    14.27     1  09:00        1.58
  MH-1148              JUNCTION     0.23     9.90    45.26     1  08:07        9.23
  MH-1150              JUNCTION     0.17     6.55    25.44     1  08:03        6.55
  MH-1151              JUNCTION     0.11     1.40    12.64     1  09:00        1.40
  MH-1154              JUNCTION     1.02     9.55     9.82     1  08:38        9.50
  MH-1155              JUNCTION     0.52     6.46     9.05     1  08:38        6.43
  MH-1158              JUNCTION     0.10     1.18    10.71     1  09:00        1.18
  MH-1160              JUNCTION     0.30    11.85    51.62     1  08:07       11.85
  MH-1161              JUNCTION     0.94     9.52     9.91     1  08:48        9.50
  MH-1164              JUNCTION     0.45     6.24     8.89     1  08:58        6.22
  MH-1165              JUNCTION     0.91     3.03    -2.57     1  09:03        3.03
  MH-1167              JUNCTION     0.26     8.02    13.62     1  08:10        7.08
  MH-1175              JUNCTION     0.32    13.99    19.44     1  08:10        7.22
  MH-1178              JUNCTION     0.14     1.89    11.03     1  08:51        1.89
  MH-1179              JUNCTION     1.05     9.40     9.56     1  08:43        9.37
  MH-1181              JUNCTION     0.26     6.38    25.52     1  08:07        5.32
  MH-1192              JUNCTION     0.18     2.25    13.84     1  09:00        2.25
  MH-1204              JUNCTION     0.27     5.19    23.72     1  08:04        3.75
  MH-1208              JUNCTION     0.32     5.21     7.81     1  08:46        5.20
  MH-1210              JUNCTION     0.35    14.04    18.69     1  08:10        7.61
  MH-122               JUNCTION     0.14     7.59    99.01     1  10:20        4.20
  MH-1224              JUNCTION     0.17     2.17    20.37     1  08:59        2.17
  MH-1225              JUNCTION     0.03     0.37    13.83     1  09:00        0.37
  MH-1229              JUNCTION     0.40    13.25    17.62     1  08:10        7.70
  MH-1233              JUNCTION     0.91     3.14    -2.90     1  09:03        3.14
  MH-1239              JUNCTION     0.09     1.12    21.88     1  09:00        1.12
  MH-124               JUNCTION     0.21     9.58    98.59     1  10:20        6.59
  MH-1247              JUNCTION     1.05     8.52     8.43     1  08:22        8.51
  MH-1247A             JUNCTION     1.05     8.86     8.85     1  08:22        8.83
  MH-1251              JUNCTION     0.09     1.12    24.43     1  09:00        1.12
  MH-1257              JUNCTION     0.29     4.26     6.16     1  08:58        4.21
  MH-1259              JUNCTION     0.10     0.87    15.19     1  09:00        0.87
  MH-1278              JUNCTION     1.06     7.96     7.74     1  08:21        7.94
  MH-1280              JUNCTION     1.04     3.36    -3.48     1  09:03        3.36
  MH-1284              JUNCTION     0.41     8.50    11.83     1  08:10        6.12
  MH-1286              JUNCTION     1.16     7.96     7.63     1  08:44        7.91
  MH-1294              JUNCTION     1.12     3.40    -3.58     1  09:03        3.40
  MH-1299              JUNCTION     0.30     3.40     4.71     1  08:35        3.38
  MH-1304              JUNCTION     0.10     1.11     7.74     1  09:00        1.11
  MH-1320              JUNCTION     0.15     1.60     1.81     1  09:00        1.60
  MH-1324              JUNCTION     0.16     2.07     3.17     1  09:00        2.07
  MH-1328              JUNCTION     0.15     1.82     1.81     1  08:55        1.82
  MH-1333              JUNCTION     0.56     5.46     4.73     1  08:54        5.44
  MH-1340              JUNCTION     0.21     2.91     3.87     1  08:55        2.89
  MH-1353              JUNCTION     1.16     3.28    -3.91     1  09:03        3.28
  MH-1355              JUNCTION     0.33     3.30     3.38     1  08:59        3.30
  MH-1359              JUNCTION     0.36    31.54    58.17     1  08:07       12.14
  MH-1362              JUNCTION     0.27     3.13     5.17     1  09:00        3.13
  MH-1365              JUNCTION     1.05     6.38     4.23     1  08:17        6.37
  MH-1366              JUNCTION     0.16     2.42     2.89     1  09:00        2.42
  MH-1368              JUNCTION     0.16     2.45     2.92     1  08:59        2.45
  MH-1369              JUNCTION     0.99     6.24     4.13     1  08:23        6.23
  MH-1371              JUNCTION     0.63     2.42     2.89     1  08:59        2.42
  MH-1372              JUNCTION     0.07     0.79     8.89     1  09:00        0.79
  MH-1384              JUNCTION     1.05     3.11    -4.05     1  09:03        3.11
  MH-1385              JUNCTION     0.21     2.97     4.49     1  09:00        2.97
  MH-1386              JUNCTION     0.18     2.46     6.44     1  09:00        2.46
  MH-1389              JUNCTION     0.12     0.55    -0.08     1  09:00        0.55
  MH-1399              JUNCTION     1.38     5.37    20.79     1  08:56        5.32
  MH-140               JUNCTION     0.64    10.25    97.98     1  10:20        7.90
  MH-1409              JUNCTION     0.17     2.43     7.72     1  09:00        2.43
  MH-1413              JUNCTION     0.45    11.60    51.49     1  08:04       11.60
  MH-1427              JUNCTION     1.65     3.28    -4.58     1  09:02        3.28
  MH-1429              JUNCTION     0.15     1.97    18.56     1  09:00        1.97
  MH-1430              JUNCTION     1.77     3.31    -4.68     1  09:02        3.31
  MH-1434              JUNCTION     1.03     5.49     3.19     1  08:43        5.48
  MH-1436              JUNCTION     0.03     0.29    -2.59     1  09:00        0.29
  MH-1437              JUNCTION     0.11     2.32     1.32     1  09:00        2.32
  MH-1441              JUNCTION     0.17     2.42    10.43     1  09:00        2.42
  MH-1447              JUNCTION     0.10     0.60     1.60     1  09:00        0.60
  MH-1452              JUNCTION     0.45    11.70    48.46     1  08:04       11.29
  MH-1456              JUNCTION     0.14     1.73    14.03     1  09:00        1.73
  MH-1464              JUNCTION     0.26     2.26    25.35     1  09:00        2.26
  MH-1478              JUNCTION     1.08     5.04     2.62     1  08:30        5.02
  MH-1479              JUNCTION     0.45    11.08    45.59     1  08:04       11.08
  MH-1480              JUNCTION     0.36     9.80    29.10     1  08:06        9.80
  MH-1481              JUNCTION     0.06     0.31    -0.75     1  09:00        0.31
  MH-1485              JUNCTION     0.04     0.43     2.80     1  09:00        0.43
  MH-1487              JUNCTION     2.15     2.62    -5.83     1  09:01        2.62
  MH-1493              JUNCTION     2.35     2.78    -5.87     1  09:01        2.78
  MH-1493A             JUNCTION     2.86     3.26    -5.91     1  14:16        3.22
  MH-1494              JUNCTION     0.04     0.46     0.81     1  09:00        0.46
  MH-1498              JUNCTION     0.09     1.53     0.70     1  09:00        1.53
  MH-1508              JUNCTION     0.18     1.67    24.48     1  09:00        1.67
  MH-1509              JUNCTION     2.51     2.94    -5.88     1  14:14        2.88
  MH-1522              JUNCTION     0.25     0.91    -3.90     1  09:00        0.91
  MH-1531              JUNCTION     0.14     1.73    23.73     1  09:00        1.73
  MH-1542              JUNCTION     0.18     2.50    23.69     1  09:00        2.50
  MH-1548              JUNCTION     0.78     2.47    -2.24     1  09:00        2.47
  MH-1549              JUNCTION     0.12     1.19     3.40     1  09:00        1.19
  MH-1559              JUNCTION     0.47     1.90    -1.01     1  08:59        1.90
  MH-1561              JUNCTION     0.12     0.12    87.33     0  00:08        0.12
  MH-1571              JUNCTION     0.56     2.24    -1.61     1  09:00        2.24
  MH-1574              JUNCTION     0.12     1.06     3.79     1  09:00        1.06
  MH-1575              JUNCTION     0.42    10.70    25.06     1  08:10       10.70
  MH-158               JUNCTION     0.23     9.75    97.88     1  10:20        7.50
  MH-1593              JUNCTION     0.24     7.10    26.00     1  08:09        7.10
  MH-1599              JUNCTION     0.17     0.17    74.10     0  00:14        0.17
  MH-1614              JUNCTION     0.36     9.90    23.55     1  08:10        9.90
  MH-1615              JUNCTION     0.46     2.12    -0.76     1  09:00        2.12
  MH-1627              JUNCTION     0.39    10.00    23.10     1  08:10        9.99
  MH-1630              JUNCTION     0.15     0.15    72.35     0  00:19        0.15
  MH-1638              JUNCTION     0.36    11.76    36.43     1  08:05        7.56
  MH-164               JUNCTION     0.25    11.26    97.86     1  10:20        9.03
  MH-1650              JUNCTION     0.18     0.18    71.25     0  00:13        0.18
  MH-1652              JUNCTION     0.27     8.30    21.81     1  08:10        8.02
  MH-1656              JUNCTION     0.34    11.83    34.68     1  08:05        6.90
  MH-1657              JUNCTION     0.50     2.24     0.10     1  09:01        2.24
  MH-1665              JUNCTION     0.39     8.90    21.39     1  08:10        8.75
  MH-1670              JUNCTION     0.37    11.75    33.58     1  08:05        6.52
  MH-1681              JUNCTION     0.23    12.06    32.96     1  08:05        7.05
  MH-1683              JUNCTION     0.30     8.45    24.86     1  08:10        5.91
  MH-1686              JUNCTION     0.26     8.30    24.38     1  08:10        6.08
  MH-1711              JUNCTION     0.37     7.86    18.70     1  08:10        5.28
  MH-1718              JUNCTION     0.65     2.89     1.04     1  08:33        2.85
  MH-1726              JUNCTION     0.29    11.86    29.03     1  08:05        8.49
  MH-1739              JUNCTION     0.28    16.75    83.96     1  07:46        2.73
  MH-1739A             JUNCTION     0.18     0.92    70.00     1  07:55        0.91
  MH-1752              JUNCTION     0.10     0.50    21.90     1  09:52        0.50
  MH-1759              JUNCTION     0.35    11.58    25.04     1  08:05        9.89
  MH-1762              JUNCTION     0.65     3.57     1.96     1  08:32        3.48
  MH-1762A             JUNCTION     0.63     3.61     2.04     1  08:32        3.51
  MH-1765              JUNCTION     0.26     1.19    19.17     1  09:52        1.19
  MH-1770              JUNCTION     0.27     3.43    13.43     1  08:58        3.43
  MH-1797              JUNCTION     0.12     0.13    19.08     0  00:00        0.12
  MH-1803              JUNCTION     0.45    11.25    21.11     1  07:45       11.25
  MH-181               JUNCTION     0.40    14.09    97.85     1  10:20       11.84
  MH-1812              JUNCTION     0.21     2.59    19.64     1  09:00        2.59
  MH-1814              JUNCTION     0.39     6.20    71.88     1  07:41        4.26
  MH-1819              JUNCTION     0.63     4.12     2.74     1  08:32        3.83
  MH-1831              JUNCTION     0.16     0.18    18.77     0  00:04        0.18
  MH-1835              JUNCTION     0.76     1.62    19.09     1  09:49        1.62
  MH-1838              JUNCTION     0.58    11.44    21.15     1  08:55       11.41
  MH-1848              JUNCTION     0.45     4.06     3.73     1  08:31        3.40
  MH-1848A             JUNCTION     0.47     4.05     3.13     1  08:31        3.61
  MH-1867              JUNCTION     0.47     9.61    18.41     1  08:32        9.57
  MH-1880              JUNCTION     0.15     0.16    18.43     0  00:08        0.15
  MH-1884              JUNCTION     0.47     9.37    17.34     1  07:46        9.29
  MH-1889              JUNCTION     0.10     0.49    18.59     1  09:49        0.49
  MH-189               JUNCTION     0.75    14.95    97.76     1  10:20       12.79
  MH-1891              JUNCTION     0.19     2.40    17.27     1  09:00        2.40
  MH-1895              JUNCTION     0.25     0.25    18.37     0  02:23        0.25
  MH-1901              JUNCTION     0.20     0.99    17.97     1  09:08        0.99
  MH-1914              JUNCTION     0.27     0.27    18.35     0  02:23        0.27
  MH-1918              JUNCTION     0.44    11.71    76.44     1  07:37        5.14
  MH-1925              JUNCTION     0.42     8.11    14.11     1  07:46        7.61
  MH-1930              JUNCTION     0.43     3.84     4.77     1  08:31        2.83
  MH-1935              JUNCTION     0.18     0.87    17.55     1  09:09        0.87
  MH-1942              JUNCTION     0.20     2.60    15.23     1  09:00        2.60
  MH-1954              JUNCTION     0.38     2.55     3.94     1  09:00        2.54
  MH-1956              JUNCTION     0.22     1.20    16.60     1  09:13        1.20
  MH-1968              JUNCTION     0.12     0.12    18.10     0  02:25        0.12
  MH-1970              JUNCTION     0.16     0.81    17.20     1  09:10        0.81
  MH-1973              JUNCTION     0.55     2.93     4.24     1  08:34        2.68
  MH-1981              JUNCTION     0.12     0.12    17.88     0  02:25        0.12
  MH-1987              JUNCTION     0.35     6.53     9.25     1  07:46        5.65
  MH-199               JUNCTION     0.54    14.70    97.67     1  10:20       12.64
  MH-2002              JUNCTION     0.45    11.73    76.34     1  07:37        5.26
  MH-2008              JUNCTION     0.17     0.90    16.75     1  09:12        0.90
  MH-2022              JUNCTION     0.34     1.33    16.44     1  09:14        1.33
  MH-2026              JUNCTION     0.37     1.35    16.43     1  09:14        1.35
  MH-2028              JUNCTION     0.21     3.22    12.89     1  09:00        3.22
  MH-203               JUNCTION     0.89    14.66    97.55     1  07:10       14.66
  MH-2035              JUNCTION     0.12     0.13    16.56     0  01:29        0.13
  MH-2043              JUNCTION     0.96     3.49     4.43     1  08:34        3.30
  MH-2047              JUNCTION     0.13     0.14    43.16     0  00:01        0.13
  MH-205               JUNCTION     0.80    14.20    95.53     1  07:10       12.29
  MH-2081              JUNCTION     0.24     5.20    13.04     1  09:00        5.19
  MH-2084              JUNCTION     0.14     0.61    15.79     1  09:15        0.61
  MH-2087              JUNCTION     0.22     0.90    15.63     1  09:16        0.90
  MH-2088              JUNCTION     0.13     0.13    36.61     0  00:02        0.13
  MH-2097              JUNCTION     0.18     0.18    35.59     0  00:17        0.18
  MH-2099              JUNCTION     1.40     4.16     4.68     1  08:34        4.01
  MH-2099A             JUNCTION     1.34     4.06     4.63     1  08:34        3.94
  MH-2105              JUNCTION     0.19     0.19    35.43     0  00:17        0.19
  MH-2106              JUNCTION     0.19     0.19    35.39     0  00:16        0.19
  MH-2109              JUNCTION     0.12     1.44    12.01     1  09:00        1.44
  MH-2134              JUNCTION     0.11     0.11    36.65     0  00:18        0.11
  MH-2135              JUNCTION     0.42     3.30    66.53     1  07:35        3.30
  MH-2135A             JUNCTION     0.51     9.81    73.63     1  07:37        6.02
  MH-2135B             JUNCTION     0.78     6.58    69.81     1  07:37        6.58
  MH-2147              JUNCTION     0.32     1.26    15.36     1  09:17        1.26
  MH-2153              JUNCTION     0.12     2.78    11.96     1  09:00        2.78
  MH-2155              JUNCTION     1.24     4.14     4.83     1  08:34        4.10
  MH-2158              JUNCTION     0.10     0.10    37.86     0  00:08        0.10
  MH-2162              JUNCTION     0.19     3.16    11.95     1  09:00        3.16
  MH-2163              JUNCTION     0.40     7.34    12.73     1  09:00        7.33
  MH-2168              JUNCTION     0.17     0.17    31.59     0  00:20        0.17
  MH-2169              JUNCTION     0.34     7.09    13.92     1  09:00        7.06
  MH-2181              JUNCTION     0.33     6.49    16.56     1  09:00        6.45
  MH-2189              JUNCTION     0.29     1.19    15.15     1  09:18        1.19
  MH-2192              JUNCTION     0.87     3.98     5.06     1  09:00        3.94
  MH-2192A             JUNCTION     0.35     3.02     5.28     1  09:00        3.01
  MH-2202              JUNCTION     0.16     4.21    11.89     1  08:52        4.19
  MH-2204              JUNCTION     0.38     3.49    66.03     1  07:38        3.37
  MH-2206              JUNCTION     0.08     0.08    49.12     0  00:03        0.08
  MH-2209              JUNCTION     0.43     7.78    20.29     1  08:36        7.78
  MH-2224              JUNCTION     0.19     0.20    27.25     1  08:15        0.19
  MH-2237              JUNCTION     0.28     1.11    14.88     1  09:20        1.11
  MH-2239              JUNCTION     0.66     3.37     5.43     1  08:55        3.31
  MH-224               JUNCTION     0.71    13.57    94.32     1  07:10       10.66
  MH-2240              JUNCTION     0.81     4.79    65.16     1  07:37        4.57
  MH-2241              JUNCTION     0.48     8.09    11.81     1  08:59        8.07
  MH-2245              JUNCTION     0.48     8.09    11.74     1  08:58        8.07
  MH-2246              JUNCTION     0.24     2.54     5.54     1  08:56        2.50
  MH-2250              JUNCTION     0.55    10.30    27.22     1  07:36       10.30
  MH-2271              JUNCTION     0.24    10.50    34.07     1  08:15        1.72
  MH-2276              JUNCTION     0.32     6.01    11.75     1  08:58        5.96
  MH-2276A             JUNCTION     0.19     6.03    11.75     1  09:00        5.98
  MH-2280              JUNCTION     0.24     1.00    14.49     1  09:21        1.00
  MH-2287              JUNCTION     0.42    12.25    32.75     1  08:06       11.66
  MH-229               JUNCTION     0.71    13.19    93.84     1  07:10       10.40
  MH-2292              JUNCTION     0.42    12.20    32.54     1  08:06       11.59
  MH-2299              JUNCTION     0.20     6.24     9.84     1  08:59        6.23
  MH-2300              JUNCTION     0.75     5.35    65.65     1  07:26        3.06
  MH-2309              JUNCTION     0.09     2.20    11.71     1  09:00        2.20
  MH-2309A             JUNCTION     0.17     4.93    11.76     1  09:00        4.89
  MH-2310              JUNCTION     0.00     0.00    54.80     0  00:00        0.00
  MH-2317              JUNCTION     0.00     0.00    54.44     0  00:00        0.00
  MH-2318              JUNCTION     0.30     8.45    26.22     1  08:58        8.43
  MH-2327              JUNCTION     0.29     1.13    14.17     1  09:23        1.13
  MH-2331              JUNCTION     0.17     4.48     6.21     1  09:01        4.48
  MH-2331A             JUNCTION     0.12     6.59    10.51     1  08:11        4.48
  MH-2331B             JUNCTION     0.12     6.49    10.09     1  08:11        4.50
  MH-2331C             JUNCTION     0.22     4.80     6.69     1  08:59        4.76
  MH-2331D             JUNCTION     0.17     4.69     6.57     1  08:59        4.67
  MH-2345              JUNCTION     0.15     1.81    57.24     1  09:00        1.81
  MH-2347              JUNCTION     0.37     9.29    25.77     1  08:58        9.28
  MH-2350              JUNCTION     0.13     1.71    55.83     1  08:59        1.71
  MH-2354              JUNCTION     0.22     0.80    61.24     1  08:05        0.80
  MH-236               JUNCTION     0.63    12.91    92.98     1  07:09        8.71
  MH-2361              JUNCTION     0.31    10.30    29.83     1  08:08        5.75
  MH-2362              JUNCTION     0.19     5.21     7.04     1  08:58        5.17
  MH-2362A             JUNCTION     0.19     5.51     7.93     1  09:00        5.49
  MH-2367              JUNCTION     0.40     9.50    27.58     1  08:06        9.50
  MH-2374              JUNCTION     0.25     1.03    13.87     1  09:25        1.03
  MH-2380              JUNCTION     0.38     9.25    25.66     1  08:25        9.25
  MH-2383              JUNCTION     0.19     6.03    53.00     1  08:17        4.68
  MH-2390              JUNCTION     0.44     9.80    26.16     1  08:06        9.80
  MH-2391              JUNCTION     0.55     2.53    60.13     1  10:17        2.53
  MH-2406              JUNCTION     0.22     7.61    51.29     1  08:10        5.68
  MH-2408              JUNCTION     0.43     9.90    25.63     1  08:06        9.54
  MH-241               JUNCTION     0.56    12.40    91.92     1  07:10        7.17
  MH-2411              JUNCTION     0.39    10.15    25.65     1  08:06        9.93
  MH-2411A             JUNCTION     0.50    10.34    25.47     1  08:06       10.15
  MH-2417              JUNCTION     0.25     1.03    13.53     1  09:26        1.03
  MH-2422              JUNCTION     0.27     8.33    41.97     1  08:10        8.33
  MH-2423              JUNCTION     0.17     1.75     9.99     1  08:41        1.75
  MH-2427              JUNCTION     0.17     1.75     9.75     1  08:41        1.75
  MH-2429              JUNCTION     0.28     6.12    21.55     1  08:28        6.08
  MH-2431              JUNCTION     0.32     9.21    47.74     1  08:10        8.47
  MH-2433              JUNCTION     0.26     5.40    20.37     1  08:59        5.38
  MH-2434              JUNCTION     0.37     9.36    46.73     1  08:10        9.01
  MH-2436              JUNCTION     0.53    11.65    24.16     1  08:24       11.65
  MH-2439              JUNCTION     0.68     9.43    46.54     1  08:10        9.43
  MH-2443              JUNCTION     0.36     9.00    39.31     1  08:10        9.00
  MH-2447              JUNCTION     0.23     0.84    57.46     1  08:06        0.84
  MH-2454              JUNCTION     0.68    13.08    23.55     1  08:41       12.97
  MH-2455              JUNCTION     0.26     2.51    12.79     1  08:56        2.51
  MH-2457              JUNCTION     0.31     1.19    58.49     1  08:05        1.19
  MH-246               JUNCTION     0.48    12.20    91.26     1  07:10        5.54
  MH-2460              JUNCTION     0.60    12.88    23.32     1  08:39       12.83
  MH-2461              JUNCTION     0.25     4.00    18.04     1  09:03        3.96
  MH-2462              JUNCTION     0.40     9.70    42.43     1  08:10        9.55
  MH-2467              JUNCTION     0.30     7.97    46.38     1  08:10        7.93
  MH-2476              JUNCTION     0.20     0.72    55.18     1  08:06        0.72
  MH-2479              JUNCTION     0.21     0.75    54.65     1  08:06        0.75
  MH-2484              JUNCTION     0.27     6.95    46.14     1  08:08        6.95
  MH-2486              JUNCTION     0.26     3.13     8.66     1  09:00        3.13
  MH-2492              JUNCTION     0.48    10.10    37.97     1  07:56       10.10
  MH-2493              JUNCTION     0.15     2.13    14.82     1  08:26        2.13
  MH-2497              JUNCTION     0.21     5.74    34.37     1  08:10        5.57
  MH-2498              JUNCTION     0.24     1.01    12.84     1  09:32        1.01
  MH-2505              JUNCTION     0.27     6.95    46.77     1  08:08        6.35
  MH-2511              JUNCTION     0.00     0.00    11.45     0  00:00        0.00
  MH-2511A             JUNCTION     0.00     0.00    10.30     0  00:00        0.00
  MH-2512              JUNCTION     0.22     0.79    50.20     1  08:06        0.79
  MH-2514              JUNCTION     0.19     0.68    49.81     1  08:06        0.68
  MH-252               JUNCTION     0.43    12.00    90.46     1  07:10        3.68
  MH-2520              JUNCTION     0.66    12.21    20.27     1  08:42       12.18
  MH-2528              JUNCTION     0.52     9.95    35.53     1  07:56        9.95
  MH-2534              JUNCTION     0.20     0.71    45.68     1  08:07        0.71
  MH-2536              JUNCTION     0.25     1.05    12.53     1  09:35        1.05
  MH-2538              JUNCTION     0.23    11.45    52.27     1  08:09        5.45
  MH-2542              JUNCTION     0.38     9.70    11.32     1  07:39        7.50
  MH-2543              JUNCTION     0.39     4.22     5.87     1  09:00        3.77
  MH-2544              JUNCTION     0.77     3.55     5.20     1  09:00        3.55
  MH-2547              JUNCTION     0.32     4.00     5.65     1  09:00        4.00
  MH-2554              JUNCTION     0.05     0.52    46.35     1  08:09        0.52
  MH-2555              JUNCTION     0.27     7.30    30.40     1  08:10        7.30
  MH-2558              JUNCTION     0.19     0.69    43.03     1  08:07        0.69
  MH-2559              JUNCTION     0.04     0.04     7.17     1  09:17        0.04
  MH-2560              JUNCTION     0.52    11.18    18.23     1  08:40       11.16
  MH-2564              JUNCTION     0.07     0.07    48.44     0  00:16        0.07
  MH-2566              JUNCTION     0.25     1.04    12.38     1  09:36        1.04
  MH-2573              JUNCTION     0.26     7.55    29.77     1  08:09        7.55
  MH-2574              JUNCTION     0.21     0.77    39.67     1  08:07        0.77
  MH-2576              JUNCTION     0.27     8.41    29.87     1  08:09        8.23
  MH-2580              JUNCTION     0.07     0.07    50.70     0  00:02        0.07
  MH-2583              JUNCTION     0.36     9.86    29.79     1  08:09        9.51
  MH-2591              JUNCTION     0.62    11.50    16.76     1  08:36       11.50
  MH-2591A             JUNCTION     0.68    11.41    16.55     1  08:55       11.39
  MH-2594              JUNCTION     0.46     9.11    32.12     1  07:54        8.39
  MH-2597              JUNCTION     0.20     0.74    36.62     1  08:08        0.74
  MH-2603              JUNCTION     0.24     1.00    12.01     1  09:38        1.00
  MH-2606              JUNCTION     0.47     8.85    31.27     1  07:54        7.97
  MH-2607              JUNCTION     0.03     0.03     5.10     1  10:54        0.03
  MH-2608              JUNCTION     0.31     8.96    26.73     1  08:09        7.19
  MH-2611              JUNCTION     0.24     5.30    32.76     1  08:14        5.30
  MH-2612              JUNCTION     0.26     8.95    26.63     1  08:09        7.16
  MH-2614              JUNCTION     0.54    15.00    15.35     1  07:36        8.76
  MH-2616              JUNCTION     0.14     0.62    33.51     1  07:18        0.62
  MH-2618              JUNCTION     0.50     7.40    11.70     1  08:53        7.39
  MH-2622              JUNCTION     0.02     0.26     3.26     1  10:25        0.26
  MH-2623              JUNCTION     0.04     0.63     3.26     1  10:25        0.63
  MH-2625              JUNCTION     0.18     0.80    32.94     1  07:18        0.79
  MH-2630              JUNCTION     0.43    10.25    24.61     1  08:09       10.25
  MH-2631              JUNCTION     0.25     0.91    30.41     1  08:08        0.91
  MH-2632              JUNCTION     0.23     0.95    11.58     1  09:41        0.95
  MH-2633              JUNCTION     0.90    10.29     9.15     1  08:45       10.26
  MH-2633A             JUNCTION     0.97    10.39     9.16     1  08:52       10.33
  MH-2634              JUNCTION     1.08     6.43     7.91     1  08:50        6.43
  MH-2635              JUNCTION     0.48     6.63     8.11     1  08:43        6.46
  MH-2636              JUNCTION     0.16     0.82    35.41     1  07:16        0.82
  MH-2637              JUNCTION     0.19     0.78    35.09     1  07:16        0.77
  MH-2638              JUNCTION     0.36     7.91    29.05     1  07:54        6.36
  MH-2641              JUNCTION     0.51    14.50    14.44     1  07:36        9.20
  MH-2644              JUNCTION     0.54    14.10    13.93     1  07:36        9.32
  MH-2646              JUNCTION     0.24     5.62    31.56     1  08:14        4.64
  MH-2649              JUNCTION     0.27     5.72    31.23     1  08:14        5.02
  MH-2650              JUNCTION     0.18     0.63    28.62     1  08:08        0.63
  MH-2653              JUNCTION     0.40    11.60    24.35     1  08:05        9.04
  MH-2654              JUNCTION     0.91    10.57     9.20     1  08:48       10.52
  MH-2656              JUNCTION     0.25     5.65    32.49     1  08:18        3.77
  MH-2657              JUNCTION     0.92    10.56     9.20     1  08:43       10.49
  MH-2658              JUNCTION     0.25     1.08    11.25     1  09:33        1.08
  MH-2659              JUNCTION     0.18     0.79    31.31     1  07:20        0.79
  MH-2660              JUNCTION     0.55     9.81     9.17     1  08:54        9.78
  MH-2663              JUNCTION     0.26     1.00    19.82     1  08:09        1.00
  MH-2666              JUNCTION     0.38     9.11    26.04     1  07:52        7.01
  MH-2668              JUNCTION     0.29     1.12    11.12     1  09:31        1.12
  MH-2669              JUNCTION     0.83    10.80     9.16     1  08:49       10.79
  MH-267               JUNCTION     0.32     1.68    79.85     1  08:31        1.68
  MH-2670              JUNCTION     0.21     2.83    30.85     1  08:26        2.66
  MH-2672              JUNCTION     0.37     7.85    27.07     1  08:06        7.85
  MH-2676              JUNCTION     0.21     2.32    30.65     1  08:32        2.32
  MH-2680              JUNCTION     0.39     9.41    23.90     1  07:52        7.52
  MH-2683              JUNCTION     0.25     0.95    17.31     1  08:10        0.95
  MH-2685              JUNCTION     0.24     1.03    10.99     1  09:30        1.03
  MH-2686              JUNCTION     0.34     8.22    17.94     1  08:10        6.48
  MH-2688              JUNCTION     0.18     1.05    30.70     1  08:34        1.05
  MH-2692              JUNCTION     1.15    11.35     9.16     1  08:46       11.32
  MH-2693              JUNCTION     0.44     9.00    25.13     1  08:06        9.00
  MH-2694              JUNCTION     0.42     9.60    20.77     1  07:48        7.94
  MH-2695              JUNCTION     0.41     9.13    24.92     1  08:04        9.01
  MH-2696              JUNCTION     0.42     9.10    24.68     1  08:04        9.10
  MH-2697              JUNCTION     0.14     8.50    20.28     1  08:10        4.39
  MH-2698              JUNCTION     0.25     1.14    10.74     1  09:26        1.14
  MH-2699              JUNCTION     0.54     9.03    20.41     1  08:10        4.77
  MH-2700              JUNCTION     0.22     0.83    14.23     1  08:11        0.83
  MH-2706              JUNCTION     0.28     3.36    10.34     1  08:58        3.36
  MH-2707              JUNCTION     0.11     2.32     9.20     1  08:51        2.27
  MH-2708              JUNCTION     0.92    11.25     9.14     1  08:54       11.22
  MH-2709              JUNCTION     0.46     7.98    16.74     1  08:59        7.98
  MH-2712              JUNCTION     0.54     1.42    10.62     1  09:25        1.42
  MH-2715              JUNCTION     0.29     1.13    10.58     1  09:24        1.13
  MH-2716              JUNCTION     0.47     1.35    10.62     1  09:24        1.35
  MH-2719              JUNCTION     0.37     1.73    10.57     1  09:38        1.73
  MH-2720              JUNCTION     0.50     1.73    10.44     1  09:36        1.73
  MH-2721              JUNCTION     0.36     6.96    14.74     1  07:54        6.79
  MH-2725              JUNCTION     0.88    11.76     9.11     1  08:53       11.73
  MH-2726              JUNCTION     0.98     9.13    13.55     1  07:54        8.87
  MH-2727              JUNCTION     0.53     8.34    12.76     1  08:52        8.30
  MH-2730              JUNCTION     0.22     1.15    10.38     1  09:25        1.15
  MH-2734              JUNCTION     1.35    12.40     8.87     1  08:58       12.38
  MH-2735              JUNCTION     0.33     1.31     9.92     1  09:29        1.31
  MH-2736              JUNCTION     1.31    12.32     8.80     1  08:47       12.26
  MH-2738              JUNCTION     0.45     1.48     9.72     1  09:29        1.48
  MH-274               JUNCTION     0.37     1.72    79.40     1  08:32        1.72
  MH-2740              JUNCTION     0.39     9.15    17.00     1  08:03        8.11
  MH-2743              JUNCTION     1.13    11.90     8.40     1  08:53       11.87
  MH-2748              JUNCTION     0.30     1.10     9.07     1  09:30        1.10
  MH-2751              JUNCTION     1.09    10.35    13.14     1  08:04       10.12
  MH-2752              JUNCTION     1.13    11.72     8.02     1  08:48       11.69
  MH-2755              JUNCTION     0.33     1.10     8.20     1  09:31        1.10
  MH-2757              JUNCTION     1.18    11.29     7.30     1  08:59       11.26
  MH-2758              JUNCTION     0.77     6.36     2.29     1  08:49        6.36
  MH-2759              JUNCTION     0.57     1.51     7.36     1  09:32        1.51
  MH-2764              JUNCTION     0.46     1.78    -3.29     1  09:00        1.78
  MH-2765              JUNCTION     0.63     1.60    -3.78     1  09:01        1.60
  MH-2770              JUNCTION     0.42     0.65    15.94     1  09:00        0.65
  MH-2771              JUNCTION     1.06     1.50    16.80     1  08:59        1.50
  MH-2773              JUNCTION     0.50     0.77    11.19     1  09:01        0.77
  MH-2777              JUNCTION     1.25     1.91    17.23     1  08:58        1.91
  MH-2778              JUNCTION     1.45     4.53    20.15     1  08:17        4.07
  MH-2779              JUNCTION     1.43     4.16    19.74     1  08:15        3.74
  MH-2782              JUNCTION     1.43     4.81    20.50     1  08:17        4.28
  MH-2788              JUNCTION     0.65     1.64    28.48     1  09:08        1.64
  MH-2789              JUNCTION     0.50     0.77    10.57     1  09:01        0.77
  MH-279               JUNCTION     0.68    12.17    74.44     1  07:23       11.33
  MH-2790              JUNCTION     1.40     3.71    19.25     1  07:41        3.36
  MH-2792              JUNCTION     1.28     2.05    17.41     1  09:04        2.05
  MH-2795              JUNCTION     1.43     5.04    20.77     1  08:17        4.48
  MH-2797              JUNCTION     0.83     4.16    29.34     1  07:34        3.21
  MH-2799              JUNCTION     1.40     3.82    19.30     1  07:41        3.05
  MH-2800              JUNCTION     0.45     2.43    28.44     1  08:20        2.41
  MH-2811              JUNCTION     1.36     2.42    17.82     1  08:20        2.37
  MH-2813              JUNCTION     1.39     3.32    18.76     1  07:42        2.76
  MH-2815              JUNCTION     0.50     0.77    10.10     1  09:01        0.77
  MH-2819              JUNCTION     0.87     4.67    29.41     1  08:20        2.67
  MH-2826              JUNCTION     0.06     0.62    38.82     1  08:49        0.62
  MH-2838              JUNCTION     0.06     0.65    48.10     1  08:49        0.65
  MH-284               JUNCTION     0.29     1.43    78.78     1  09:30        1.43
  MH-2844              JUNCTION     0.58     5.13    29.43     1  08:20        2.05
  MH-2849              JUNCTION     0.05     0.59    57.51     1  08:49        0.59
  MH-2851              JUNCTION     0.50     0.77     8.85     1  09:02        0.77
  MH-2860              JUNCTION     0.03     0.64    63.59     1  08:49        0.64
  MH-2863              JUNCTION     0.63     7.60    30.52     1  08:17        2.49
  MH-2875              JUNCTION     1.46     5.45    21.22     1  08:17        4.89
  MH-2882              JUNCTION     0.55     6.64    28.37     1  08:15        2.77
  MH-2885              JUNCTION     0.03     0.77    80.74     1  08:49        0.77
  MH-2887              JUNCTION     0.58     6.35    26.71     1  08:15        3.55
  MH-2893              JUNCTION     1.65     7.65    23.53     1  08:17        6.71
  MH-2897              JUNCTION     1.58     6.36    22.15     1  08:15        5.74
  MH-2899              JUNCTION     0.56     6.35    23.76     1  08:17        5.31
  MH-2903              JUNCTION     1.04     1.54     6.38     1  09:20        1.54
  MH-2904              JUNCTION     1.67     7.16    23.00     1  07:41        6.59
  MH-2906              JUNCTION     1.62     6.82    22.63     1  08:15        6.11
  MH-2911              JUNCTION     0.03     0.80    94.83     1  08:48        0.80
  MH-2917              JUNCTION     0.92     1.41     6.27     1  10:00        1.41
  MH-2928              JUNCTION     0.84     1.36     6.26     1  10:00        1.36
  MH-2935              JUNCTION     0.44     1.21     6.16     1  09:59        1.21
  MH-2937              JUNCTION     0.99     1.75     6.15     1  09:59        1.75
  MH-2940              JUNCTION     0.95     1.57     5.90     1  09:25        1.57
  MH-295               JUNCTION     0.25     1.25    77.52     1  09:30        1.25
  MH-2954              JUNCTION     1.15     1.73     5.80     1  09:25        1.72
  MH-2957              JUNCTION     0.93     1.42     4.80     1  09:37        1.42
  MH-2961              JUNCTION     1.06     1.61     5.68     1  09:26        1.61
  MH-2963              JUNCTION     0.85     1.36     5.02     1  09:36        1.36
  MH-2971              JUNCTION     0.88     1.39     5.30     1  09:28        1.39
  MH-2973              JUNCTION     0.76     1.26     4.50     1  10:00        1.26
  MH-2978              JUNCTION     0.89     1.41     5.48     1  09:27        1.41
  MH-298               JUNCTION     0.74    13.00    73.58     1  07:16       13.00
  MH-2984              JUNCTION     0.83     1.35     4.40     1  10:08        1.35
  MH-2997              JUNCTION     0.72     1.21     4.04     1  10:04        1.21
  MH-3002              JUNCTION     0.81     1.39     3.85     1  10:04        1.39
  MH-3012              JUNCTION     1.17     1.75     3.74     1  10:03        1.75
  MH-3015              JUNCTION     1.12     1.65     3.62     1  10:02        1.65
  MH-302               JUNCTION     0.48     8.45    98.96     1  07:13        8.45
  MH-3020              JUNCTION     1.10     1.61     3.56     1  10:01        1.61
  MH-3029              JUNCTION     0.63     1.19     3.28     1  10:00        1.19
  MH-3036              JUNCTION     0.63     1.32     3.24     1  10:00        1.32
  MH-3039              JUNCTION     0.15     1.52     7.51     1  09:00        1.52
  MH-3053              JUNCTION     1.06     1.77     3.17     1  10:00        1.77
  MH-3057              JUNCTION     0.10     1.43    13.52     1  09:01        1.43
  MH-3070              JUNCTION     3.13     5.50    14.10     1  09:00        5.50
  MH-3075              JUNCTION     0.80     1.54     2.79     1  10:04        1.54
  MH-3080              JUNCTION     1.06     1.81     2.67     1  10:04        1.81
  MH-3089              JUNCTION     0.80     1.61     2.47     1  10:03        1.60
  MH-3102              JUNCTION     0.86     1.78     2.36     1  10:02        1.77
  MH-3102A             JUNCTION     1.17     2.10     2.26     1  10:02        2.10
  MH-311               JUNCTION     0.32     8.00    96.79     1  07:14        5.31
  MH-3121              JUNCTION     0.34     1.14     7.87     1  09:31        1.14
  MH-3129              JUNCTION     0.48    10.35    11.75     1  07:39        7.75
  MH-3132              JUNCTION     0.16     4.25     5.09     1  09:01        4.25
  MH-3132A             JUNCTION     0.15     3.80     3.81     1  09:01        3.80
  MH-314               JUNCTION     0.30     1.37    76.42     1  09:31        1.37
  MH-316               JUNCTION     0.34     8.30    96.45     1  07:14        5.25
  MH-3185              JUNCTION     0.51     0.77     7.85     1  09:05        0.77
  MH-3200              JUNCTION     0.19     1.96     3.18     1  09:00        1.96
  MH-323               JUNCTION     0.88    13.85    71.52     1  07:16       13.85
  MH-325               JUNCTION     0.11     0.81    87.27     1  07:26        0.81
  MH-326               JUNCTION     0.17     1.13    87.68     1  07:26        1.13
  MH-327               JUNCTION     0.20     0.96    75.03     1  09:31        0.96
  MH-329               JUNCTION     0.10     1.18    25.40     1  09:00        1.18
  MH-3336              JUNCTION     0.44     7.51    53.00     1  07:13        7.51
  MH-3340              JUNCTION     0.00     0.00    48.70     0  00:00        0.00
  MH-3341              JUNCTION     0.00     0.00    48.41     0  00:00        0.00
  MH-3342              JUNCTION     0.00     0.00    47.19     0  00:00        0.00
  MH-3344              JUNCTION     0.00     0.00    50.25     0  00:00        0.00
  MH-336               JUNCTION     0.12     0.83    77.91     1  07:26        0.83
  MH-3365              JUNCTION     0.38     6.00    45.09     1  07:13        4.80
  MH-3366              JUNCTION     0.47     7.71    47.40     1  07:14        5.87
  MH-3367              JUNCTION     0.28     6.99    48.99     1  07:14        4.83
  MH-3370              JUNCTION     0.58    10.20    56.80     1  07:16       10.20
  MH-3398              JUNCTION     0.08     0.98    30.81     1  08:49        0.98
  MH-3399              JUNCTION     0.08     1.02    28.53     1  09:08        1.02
  MH-340               JUNCTION     0.20     0.98    71.68     1  09:31        0.98
  MH-344               JUNCTION     0.72    13.94    70.92     1  07:16       12.87
  MH-3443              JUNCTION     0.36     7.27    44.25     1  07:13        4.03
  MH-3452              JUNCTION     0.19     0.19    90.10     0  00:03        0.19
  MH-3454              JUNCTION     0.25     5.08     9.50     1  08:55        5.02
  MH-3455              JUNCTION     0.35     6.52     8.00     1  08:50        6.52
  MH-346               JUNCTION     0.12     0.87    74.31     1  07:27        0.87
  MH-3460              JUNCTION     0.23     5.40     8.19     1  08:54        5.35
  MH-3461              JUNCTION     0.54     8.18    10.97     1  08:47        8.14
  MH-3463              JUNCTION     0.47     8.12    11.62     1  09:00        8.09
  MH-3465              JUNCTION     0.19     6.34    10.76     1  09:00        6.30
  MH-3468              JUNCTION     0.13     1.61     3.93     1  09:01        1.61
  MH-3470              JUNCTION     0.51     9.92    31.52     1  08:05        4.92
  MH-3470A             JUNCTION     0.39     9.82    31.52     1  08:05        4.82
  MH-3472              JUNCTION     0.07     0.28     9.78     1  08:58        0.28
  MH-3476              JUNCTION     0.05     0.43    -0.41     1  07:55        0.43
  MH-3479              JUNCTION     0.37     4.37     4.50     1  09:00        4.37
  MH-3482              JUNCTION     0.08     0.46     0.89     1  09:00        0.46
  MH-3486              JUNCTION     0.12     2.66     1.26     1  09:55        2.63
  MH-3487              JUNCTION     0.14     1.65     1.72     1  09:59        1.65
  MH-3489              JUNCTION     0.05     0.17     5.55     1  09:00        0.17
  MH-349               JUNCTION     0.12     0.82    73.35     1  07:27        0.82
  MH-3490              JUNCTION     0.12     0.90     6.78     1  09:00        0.90
  MH-3494              JUNCTION     0.11     2.32    18.12     1  08:51        2.32
  MH-3495              JUNCTION     0.14     2.57    14.00     1  08:47        2.56
  MH-3500              JUNCTION     0.66     2.69     9.49     1  08:59        2.69
  MH-3500A             JUNCTION     0.08     2.05     8.85     1  08:59        2.05
  MH-3501              JUNCTION     0.19     2.44     9.24     1  08:58        2.44
  MH-3502              JUNCTION     0.17     1.92     2.37     1  09:00        1.92
  MH-3504              JUNCTION     0.07     1.19     9.83     1  08:24        1.19
  MH-3505              JUNCTION     0.10     1.10     4.39     1  09:00        1.10
  MH-3505A             JUNCTION     0.10     1.05     3.53     1  08:59        1.05
  MH-3507              JUNCTION     0.14     1.99     3.17     1  09:00        1.99
  MH-3508              JUNCTION     0.10     0.58     1.66     1  09:00        0.58
  MH-3518              JUNCTION     1.48    14.30    15.35     1  07:50       12.07
  MH-3535              JUNCTION     0.46    12.80    13.81     1  07:39        8.13
  MH-3546              JUNCTION     0.28     1.69     0.99     1  08:18        1.68
  MH-3547              JUNCTION     0.08     0.89     4.31     1  09:00        0.89
  MH-355               JUNCTION     0.13     0.91    72.38     1  07:27        0.91
  MH-3552              JUNCTION     0.28     8.66    13.24     1  08:10        7.82
  MH-3554              JUNCTION     0.10     1.39     3.30     1  09:00        1.39
  MH-3555              JUNCTION     0.18     1.49     3.05     1  08:58        1.46
  MH-3556              JUNCTION     0.05     0.21     0.31     1  09:00        0.21
  MH-3557              JUNCTION     0.15     2.46     3.28     1  10:15        1.09
  MH-3559              JUNCTION     1.17     3.91    -1.04     1  09:53        3.85
  MH-3560              JUNCTION     0.39    10.63    15.03     1  08:51       10.62
  MH-3564              JUNCTION     0.39     9.55    12.18     1  08:10        9.14
  MH-3567              JUNCTION     0.38     3.87    14.06     1  08:58        3.87
  MH-3571              JUNCTION     0.43     4.41     4.85     1  08:31        3.04
  MH-3575              JUNCTION     0.34     6.77    11.07     1  07:46        5.90
  MH-3575A             JUNCTION     0.34     6.69    10.32     1  07:46        5.77
  MH-3584              JUNCTION     0.15     2.14    14.37     1  08:26        2.14
  MH-359               JUNCTION     0.18     0.87    66.95     1  09:32        0.87
  MH-3591              JUNCTION     0.48     9.25    15.18     1  08:03        9.25
  MH-3594              JUNCTION     0.20     8.37    18.61     1  08:10        5.95
  MH-367               JUNCTION     0.79    14.50    68.78     1  07:16       13.80
  MH-372               JUNCTION     0.19     2.01    70.15     1  09:00        2.01
  MH-382               JUNCTION     0.23     2.17    28.42     1  09:00        2.17
  MH-389               JUNCTION     0.20     0.97    64.37     1  09:32        0.97
  MH-416               JUNCTION     0.17     0.83    60.97     1  09:32        0.83
  MH-438               JUNCTION     0.19     1.30    57.03     1  08:07        1.22
  MH-440               JUNCTION     0.77    13.88    63.88     1  07:16       12.79
  MH-4603              JUNCTION     1.05     1.55     4.30     1  10:08        1.55
  MH-465               JUNCTION     0.72    12.45    61.66     1  07:16       11.74
  MH-478               JUNCTION     0.16     1.85    36.88     1  09:00        1.85
  MH-4798              JUNCTION     0.12     3.06     5.34     1  09:00        3.06
  MH-4799              JUNCTION     0.12     3.03     5.05     1  09:00        3.03
  MH-4800              JUNCTION     0.12     3.01     4.71     1  09:00        3.01
  MH-4801              JUNCTION     0.12     2.95     4.34     1  09:01        2.95
  MH-4802              JUNCTION     0.11     2.85     3.86     1  09:01        2.85
  MH-4803              JUNCTION     0.11     2.70     3.33     1  09:01        2.70
  MH-4804              JUNCTION     0.10     2.45     2.70     1  09:02        2.45
  MH-482               JUNCTION     0.32     9.90    60.63     1  08:06        6.14
  MH-491               JUNCTION     0.70    11.14    59.53     1  08:07       10.68
  MH-510               JUNCTION     0.54    10.30    56.77     1  08:03       10.30
  MH-512               JUNCTION     0.22     2.47    66.11     1  09:00        2.47
  MH-519               JUNCTION     0.63     9.89    57.70     1  07:16        9.29
  MH-555               JUNCTION     0.61    10.00    57.17     1  07:16        7.92
  MH-558               JUNCTION     0.50     8.73    51.16     1  08:07        8.33
  MH-561               JUNCTION     0.43     7.25    53.85     1  08:07        6.70
  MH-568               JUNCTION     0.82     1.84     2.05     1  10:01        1.84
  MH-571               JUNCTION     0.44     7.77    51.74     1  08:07        7.20
  MH-578               JUNCTION     0.51     8.72    50.14     1  08:07        8.18
  MH-581               JUNCTION     0.22     2.47    63.92     1  09:00        2.47
  MH-587               JUNCTION     0.51     8.04    48.54     1  08:07        7.43
  MH-587A              JUNCTION     0.59     8.69    49.63     1  08:07        8.12
  MH-590               JUNCTION     0.15     1.75    15.31     1  09:00        1.75
  MH-594               JUNCTION     0.52     7.95    45.57     1  08:03        6.56
  MH-600               JUNCTION     0.85     1.96     2.00     1  10:01        1.95
  MH-604               JUNCTION     0.41     5.89    41.20     1  08:07        4.75
  MH-611               JUNCTION     0.13     1.51    12.80     1  09:00        1.51
  MH-613               JUNCTION     0.24     2.97    62.25     1  09:00        2.97
  MH-617               JUNCTION     0.44     7.09    38.02     1  08:07        6.33
  MH-621               JUNCTION     0.60     8.66    36.06     1  08:07        7.98
  MH-623               JUNCTION     0.50     7.70    33.95     1  08:07        7.15
  MH-628               JUNCTION     1.68     4.24    61.91     1  09:00        4.24
  MH-632               JUNCTION     0.87     2.22     1.86     1  10:00        2.22
  MH-635               JUNCTION     0.56     8.51    31.80     1  08:07        8.14
  MH-640               JUNCTION     0.18     3.72    11.32     1  08:59        3.72
  MH-652               JUNCTION     2.53    10.44    29.11     1  08:07       10.30
  MH-654               JUNCTION     0.17     1.79    60.94     1  09:00        1.79
  MH-655               JUNCTION     0.69     7.25    25.84     1  08:07        7.15
  MH-655A              JUNCTION     0.83     8.31    26.98     1  08:07        8.18
  MH-656               JUNCTION     0.61     5.70    22.83     1  08:35        5.65
  MH-657               JUNCTION     0.66     6.79    25.23     1  08:07        6.72
  MH-662               JUNCTION     0.12     1.25    57.40     1  09:00        1.25
  MH-668               JUNCTION     0.51     6.85    23.33     1  07:16        3.87
  MH-669               JUNCTION     0.50     5.60    23.65     1  08:07        5.57
  MH-670               JUNCTION     0.26     6.03    11.11     1  08:55        6.03
  MH-671               JUNCTION     0.15     1.54    42.93     1  09:00        1.54
  MH-672               JUNCTION     0.17     1.80    28.33     1  09:00        1.80
  MH-675               JUNCTION     0.16     1.68    32.19     1  09:00        1.68
  MH-679               JUNCTION     0.27     6.25    11.01     1  08:16        6.25
  MH-680               JUNCTION     0.42     2.45     1.74     1  10:00        2.45
  MH-682               JUNCTION     0.36     3.25     3.34     1  09:00        3.25
  MH-684               JUNCTION     0.88     6.06     4.16     1  08:15        3.63
  MH-685               JUNCTION     0.28     6.56    10.96     1  08:58        6.56
  MH-688               JUNCTION     0.33     2.49    18.47     1  08:56        2.49
  MH-690               JUNCTION     0.57     3.39    18.39     1  08:56        3.39
  MH-691               JUNCTION     0.44     3.99     4.14     1  08:57        3.95
  MH-692               JUNCTION     0.35     0.86    15.86     1  08:12        0.86
  MH-694               JUNCTION     0.12     2.49    18.33     1  08:56        2.49
  MH-697               JUNCTION     0.19     7.85    32.45     1  08:19        5.20
  MH-702               JUNCTION     0.46     5.54     5.93     1  08:58        5.52
  MH-705               JUNCTION     0.75     7.36     5.44     1  08:15        3.64
  MH-715               JUNCTION     0.33     7.81    10.67     1  08:32        7.79
  MH-716               JUNCTION     0.47     6.22     6.86     1  08:52        6.19
  MH-722               JUNCTION     0.33     7.92     9.47     1  08:09        6.65
  MH-723               JUNCTION     0.94     7.59     4.93     1  08:15        4.22
  MH-728               JUNCTION     0.76     8.31     8.83     1  08:45        8.29
  MH-732               JUNCTION     0.38     8.46    10.31     1  08:37        8.45
  MH-733               JUNCTION     0.28     8.29    29.13     1  08:19        6.54
  MH-734               JUNCTION     0.48     8.62    10.08     1  08:55        8.60
  MH-737               JUNCTION     0.22     8.07    28.87     1  08:19        6.34
  MH-748               JUNCTION     0.41     9.05    11.14     1  08:12        9.05
  MH-749               JUNCTION     0.44     9.41    10.99     1  08:13        9.41
  MH-751               JUNCTION     0.44     9.54    11.14     1  08:07        9.54
  MH-752               JUNCTION     0.20     7.85     9.24     1  08:09        4.51
  MH-758               JUNCTION     0.41     5.62    17.74     1  08:06        2.65
  MH-758A              JUNCTION     0.36     1.14    15.05     1  08:44        1.14
  MH-760               JUNCTION     0.37    10.03    11.90     1  08:07        9.49
  MH-761               JUNCTION     0.33     9.05    14.12     1  08:05        8.72
  MH-763               JUNCTION     1.27     7.46     4.33     1  08:15        4.55
  MH-764               JUNCTION     0.42     6.02    17.77     1  08:06        2.90
  MH-777               JUNCTION     1.40     5.80     2.48     1  08:15        4.59
  MH-783               JUNCTION     0.44     6.73    16.72     1  08:04        4.23
  MH-786               JUNCTION     0.19     3.93     3.03     1  09:00        3.93
  MH-792               JUNCTION     1.48     4.55     1.09     1  09:55        4.53
  MH-794               JUNCTION     0.28     8.98    23.62     1  08:12        8.98
  MH-797               JUNCTION     0.34    10.55    23.62     1  08:12       10.29
  MH-798               JUNCTION     0.82    10.36    18.06     1  07:56        6.07
  MH-799               JUNCTION     0.84     7.95    15.61     1  07:56        6.10
  MH-800               JUNCTION     0.32    11.60    15.65     1  08:07        8.98
  MH-804               JUNCTION     0.45     5.50    15.12     1  08:04        4.56
  MH-805               JUNCTION     0.99     3.96     0.92     1  08:15        3.91
  MH-807               JUNCTION     0.32     5.95    34.69     1  08:04        5.95
  MH-818               JUNCTION     0.81     8.49    16.22     1  07:56        6.08
  MH-822               JUNCTION     0.86    10.40    17.97     1  07:56        6.16
  MH-844               JUNCTION     0.73     3.75     0.11     1  09:53        3.74
  MH-850               JUNCTION     1.02     4.01     0.11     1  09:57        3.98
  MH-851               JUNCTION     0.12     2.15     5.27     1  09:00        2.15
  MH-858               JUNCTION     0.39     8.67    16.06     1  08:01        6.29
  MH-862               JUNCTION     0.57    14.25    19.75     1  07:50        8.14
  MH-864               JUNCTION     0.59    10.85    14.51     1  08:01       10.02
  MH-872               JUNCTION     0.63     2.62    14.05     1  08:50        2.62
  MH-872A              JUNCTION     0.13     2.55    13.98     1  08:40        2.54
  MH-873               JUNCTION     0.28     7.87    16.86     1  07:15        4.98
  MH-878               JUNCTION     0.13     1.53    15.04     1  09:00        1.53
  MH-879               JUNCTION     0.23     7.90    29.03     1  08:12        3.88
  MH-881               JUNCTION     0.16     2.60     5.03     1  09:00        2.60
  MH-891               JUNCTION     0.24    10.10    21.13     1  08:13        7.31
  MH-898               JUNCTION     0.15     1.40     2.87     1  09:01        1.37
  MH-9                 JUNCTION     0.19     7.60   103.05     1  08:47        7.60
  MH-90                JUNCTION     0.17     5.00    99.13     1  10:20        1.49
  MH-900               JUNCTION     0.15     1.42     2.96     1  08:43        1.39
  MH-907               JUNCTION     0.86    12.32    15.58     1  07:48       10.41
  MH-914               JUNCTION     1.11     4.09    -0.22     1  09:51        4.07
  MH-926               JUNCTION     1.42    14.00    15.08     1  07:50       11.86
  MH-929               JUNCTION     0.08     1.00    27.62     1  09:00        1.00
  MH-934               JUNCTION     1.12     4.08    -0.35     1  09:59        4.04
  MH-937               JUNCTION     0.28     2.67     4.97     1  09:00        2.67
  MH-941               JUNCTION     0.86    10.97    14.15     1  08:01       10.40
  MH-947               JUNCTION     0.29     8.05    21.74     1  08:10        5.55
  MH-949               JUNCTION     0.04     0.29     4.97     1  08:59        0.29
  MH-956               JUNCTION     0.86    10.85    14.00     1  08:01       10.40
  MH-957               JUNCTION     1.17     4.04    -0.69     1  09:59        4.02
  MH-968               JUNCTION     0.20     3.19    23.22     1  09:00        3.19
  MH-970               JUNCTION     1.30    11.41    12.56     1  08:04       11.41
  MH-972               JUNCTION     0.21    10.11    20.10     1  08:09        6.13
  MH-973               JUNCTION     0.34     9.05    20.74     1  08:10        6.00
  MH-985               JUNCTION     0.86    10.39    13.46     1  08:42       10.36
  MH-990               JUNCTION     0.13     1.61    34.66     1  09:00        1.61
  MH-991               JUNCTION     0.23     9.55    18.00     1  08:09        7.22
  MH-992               JUNCTION     0.86    10.31    13.34     1  08:44       10.28
  MH-994               JUNCTION     0.65    10.09    13.02     1  08:40       10.05
  MH-995               JUNCTION     0.55    12.36    23.27     1  07:17       12.36
  MH-999               JUNCTION     0.20     2.13     6.22     1  08:08        2.13
  New-MH-1             JUNCTION     0.32     0.89     6.74     1  09:32        0.89
  New-MH-2             JUNCTION     0.21     0.68     6.53     1  09:33        0.68
  SU1                  JUNCTION     0.09     2.05    21.61     1  08:08        2.05
  SU2                  JUNCTION     0.10     2.11    23.94     1  08:08        2.10
  101                  OUTFALL      2.00     2.00    -4.79     0  00:00        2.00
  NCPS                 OUTFALL      4.00     4.00    -5.82     0  00:00        4.00
  NCPSE                OUTFALL      3.50     3.50    -6.32     0  00:00        3.50
  NREG02               OUTFALL      0.11     2.24    -1.26     1  08:55        2.24
  NREG03               OUTFALL      0.11     2.47    -1.03     1  08:55        2.47
  NREG05               OUTFALL      0.12     3.13    -1.37     1  08:59        3.13
  NREG06               OUTFALL      0.00     0.00    -3.50     0  00:00        0.00
  NREG11               OUTFALL      0.07     1.81    -2.19     1  08:58        1.81
  NREG18               OUTFALL      0.03     0.68    -4.32     1  09:00        0.68
  NREG19               OUTFALL      0.11     2.32    14.60     1  08:51        2.32
  NREG20               OUTFALL      0.03     0.89    -3.11     1  08:50        0.89
  NREG22               OUTFALL      0.02     0.66    -2.84     1  08:59        0.66
  NREG26               OUTFALL      0.02     0.69    -3.31     1  08:49        0.69
  NREG04               OUTFALL      0.07     1.94    -1.56     1  08:58        1.94
  NREG08               OUTFALL      0.14     3.64     3.65     1  09:02        3.64
  NREG09               OUTFALL      0.09     2.11    -1.89     1  08:57        2.11
  NREG12               OUTFALL      0.01     0.33    -1.67     1  09:00        0.33
  NREG13               OUTFALL      0.09     2.38    -1.62     1  09:00        2.38
  NREG14               OUTFALL      0.09     2.45    -1.55     1  08:54        2.45
  NREG15               OUTFALL      0.04     1.09    -1.91     1  09:00        1.09
  NREG16               OUTFALL      0.09     2.52    -2.48     1  09:00        2.52
  NREG17               OUTFALL      0.10     2.10    -0.90     1  09:00        2.10
  NREG21               OUTFALL      0.04     0.93    -0.57     1  08:08        0.93
  NREG23               OUTFALL      0.02     0.67    -2.33     1  08:59        0.67
  NREG24               OUTFALL      0.01     0.44    -3.56     1  09:00        0.44
  NREG25               OUTFALL      0.04     1.05    -2.95     1  09:00        1.05
  NREG32               OUTFALL      0.01     0.45    -3.55     1  09:00        0.45
  NREG33               OUTFALL      0.02     0.69    27.94     1  08:54        0.69
  NREG07               OUTFALL      0.10     2.40     2.61     1  09:02        2.40
  
  
  *******************
  Node Inflow Summary
  *******************
  
  -------------------------------------------------------------------------------------------------
                                  Maximum  Maximum                  Lateral       Total        Flow
                                  Lateral    Total  Time of Max      Inflow      Inflow     Balance
                                   Inflow   Inflow   Occurrence      Volume      Volume       Error
  Node                 Type           CFS      CFS  days hr:min    10^6 gal    10^6 gal     Percent
  -------------------------------------------------------------------------------------------------
  MH-1000              JUNCTION      0.00     1.86     1  07:20           0       0.189       0.043
  MH-1001              JUNCTION      0.00    45.83     1  08:09           0         3.3       0.003
  MH-1002              JUNCTION      0.00     1.85     1  10:20           0       0.189       0.013
  MH-1005              JUNCTION      0.00    19.92     1  08:09           0        1.54       0.002
  MH-1007              JUNCTION      0.00     1.86     1  10:17           0       0.189       0.062
[...]
  C511                        2.95      2.95      2.95      2.90         2.79
  C512                        2.90      2.90      2.95      0.01         0.42
  C513                        2.86      2.86      2.90      2.56         2.54
  C51301                      1.95      1.95     10.87      0.01         0.01
  C514                        2.86      2.86      3.03      5.84         0.01
  C515                        3.03      3.15      3.03      4.34         3.03
  C515A                       3.15      3.20      3.15      4.50         3.15
  C516                        3.20      3.27      3.20      4.21         3.20
  C517                        2.82      2.82      2.83      0.01         0.65
  C518                        2.80      2.80      2.82      0.01         0.57
  C519                        2.80      2.80      2.80      0.01         1.09
  C520                        2.78      2.78      2.80      0.01         0.66
  C52001                      3.80      3.80      4.07      5.71         0.02
  C52002                      4.07      4.07      4.41      5.53         0.02
  C52003                      4.41      4.41      4.60      5.66         0.03
  C52004                      2.43      2.43      4.60      0.01         0.01
  C52005                      2.06      2.06      2.43      0.01         0.01
  C52006                      2.04      2.04      2.06      0.01         0.01
  C52007                      1.96      1.96      2.05      0.01         0.01
  C52008                      1.93      1.93      1.96      0.01         0.01
  C52009                      0.01      0.01      1.93      0.01         0.01
  C5201201_NEW                3.01      4.17      3.01      4.34         3.01
  C5201202_NEW                4.17      4.26      4.17      4.34         4.17
  C5201203                    4.18      4.18      4.26      0.01         0.01
  C5201204                    4.18      4.23      4.18      4.37         4.18
  C5201205                    4.23      4.24      4.23      4.35         4.23
  C5201206                    4.24      4.30      4.24      4.98         4.24
  C5201207                    3.07      3.07      4.15      0.01         0.01
  C5201208                    2.47      2.47      3.07      0.01         0.01
  C5201209                    2.47      2.48      2.47      2.58         2.47
  C5201210                    2.05      2.05      2.48      0.01         0.01
  C5201211                    1.94      1.94      2.05      0.01         0.01
  C5201212                    1.96      2.09      1.96      2.62         1.96
  C5201213                    2.08      2.08      2.09      2.16         2.08
  C520121301                  2.28      2.28      2.76      0.01         0.01
  C520121302                  2.16      2.16      2.28      0.03         0.01
  C520121303                  2.16      3.01      2.16      3.25         2.16
  C520121304                  3.01      3.13      3.01      3.25         3.01
  C520121305                  3.13      3.15      3.13      3.26         3.13
  C520121306                  3.15      3.16      3.15      3.19         3.15
  C520121307                  3.16      3.16      3.16      3.19         3.15
  C520121308                  3.11      3.11      3.16      3.00         3.00
  C520121309                  3.06      3.06      3.11      0.01         0.01
  C520121310                  3.06      3.09      3.06      3.18         3.06
  C520121311                  3.02      3.02      3.09      0.01         0.01
  C520121312                  2.89      2.89      3.09      0.01         0.01
  C5201213A                   2.08      2.13      2.08      2.91         2.08
  C5201214                    2.11      2.11      2.13      1.98         1.98
  C5201215                    2.07      2.07      2.11      1.97         1.98
  C5201216                    2.08      2.08      2.12      2.11         2.07
  C5201217                    1.98      1.98      2.08      0.01         0.01
  C5201218                    0.01      0.01      2.00      0.01         0.01
  C5201229                    3.34      3.60      3.34      3.73         3.34
  C5201230                    3.60      3.61      3.60      3.67         3.60
  C5201231                    3.61      3.63      3.61      3.68         3.61
  C5201232                    3.63      3.63      3.63      3.62         3.61
  C5201233                    3.63      3.63      3.63      3.62         3.61
  C5201234                    3.63      3.63      3.63      3.61         3.58
  C5201235                    3.62      3.62      3.63      3.63         3.61
  C5201236                    3.59      3.59      3.62      3.56         3.55
  C5201237                    3.39      3.39      3.59      0.01         0.01
  C5201238                    3.39      3.39      3.44      0.01         0.01
  C5201239                    3.21      3.21      3.44      0.01         0.01
  C5201240                    2.71      2.71      3.21      0.01         0.01
  C5201241                    1.51      1.51      2.71      0.01         0.01
  C5201242                    1.51      1.51      1.85      0.01         0.01
  C5201243                    1.09      1.09      1.85      0.01         0.01
  C5201244                    0.72      0.72      1.09      0.01         0.01
  C5201245                    0.20      0.20      0.72      0.01         0.01
  C5201246                    0.07      0.07      0.20      0.01         0.01
  C52018                      0.01      0.01      1.93      0.01         0.01
  C52028                      0.01      0.01      0.01      3.13         0.01
  C52029                      0.01      3.09      0.01      3.13         0.01
  C52030                      3.03      3.03      3.09      2.92         2.83
  C52031                      3.03      3.06      3.03      3.09         3.03
  C520A                       2.75      2.75      2.78      0.01         0.02
  C521                        2.73      2.73      2.75      0.01         0.03
  C522                        2.50      2.50      2.73      0.01         0.01
  C523                        2.78      2.78      2.85      0.01         0.21
  C524                        2.53      2.53      2.78      0.01         0.01
  C525                        2.53      2.54      2.53      3.01         2.48
  C526                        2.54      2.54      2.54      2.96         2.36
  C52601                      3.05      3.05      4.68      2.98         2.97
  C527                        2.53      2.53      2.54      1.07         1.31
  C528                        2.52      2.52      2.53      0.86         1.12
  C529                        2.51      2.51      2.52      1.05         1.26
  C530                        2.47      2.47      2.51      0.01         0.01
  C531                        2.07      2.07      2.47      0.01         0.01
  C532                        2.26      2.28      2.28      1.10         0.26
  C533                        2.27      2.29      2.28      1.18         0.28
  C534                        2.29      2.30      2.29      1.09         0.57
  C53401                      3.50      3.54      3.50      3.74         3.44
  C53402                      3.21      3.21      3.54      1.10         1.10
  C601                        0.01      0.01     71.78      0.01         0.01
  C602                        0.01      0.87      0.01      3.45         0.01
  C603                        0.87      3.25      0.87      3.46         0.87
  C60301                      0.01      0.01      0.79      0.01         0.01
  C604                        2.63      2.63      3.25      0.01         0.01
  C605                        2.63      2.65      2.63      2.96         2.63
  C606                        2.65      2.67      2.65      2.97         2.65
  C607                        2.67      2.71      2.67      2.93         2.67
  C608                        2.71      3.05      2.71      4.23         2.71
  C60801A                     0.01      0.01      1.97      0.01         0.01
  C60805                      0.01      0.01      0.01      3.32         0.01
  C60806                      0.01      0.01      0.01      0.72         0.01
  C60807                      0.01      0.72      0.01      0.99         0.01
  C609                        3.05      3.05      3.15      2.09         0.01
  C610                        3.15      3.15      3.91      2.08         0.01
  C611                        2.93      2.93      3.91      0.01         0.01
  C61101                      0.01      0.01      2.72      0.01         0.01
  C612                        2.93      2.93      2.93      0.01         1.30
  C613                        2.69      2.69      2.93      0.01         0.01
  C614                        2.82      2.87      2.82      1.37         0.18
  C615                        2.87      2.89      2.87      1.32         0.30
  C617A                       2.72      2.72      2.73      0.01         0.14
  C618                        1.93      1.93      3.15      0.01         0.01
  C619                        1.93      2.72      1.93      2.80         1.93
  C704                        0.01      0.01      0.01      3.11         0.01
  C70502A                     0.01      0.01      1.97      0.01         0.01
  C707                        0.01      0.01      0.01      3.93         0.01
  C70701                      0.01      0.01     68.80      0.01         0.01
  C70703                      0.01      0.01      1.89      0.01         0.01
  C70704                      0.01      0.01      0.01      0.75         0.01
  C70705                      0.01      1.91      0.01      2.30         0.01
  C70706                      1.91      1.95      1.91      2.07         1.91
  C70707                      1.93      1.93      1.95      0.01         0.01
  C70708                      1.89      1.89      1.93      0.01         0.01
  C70709                      1.84      1.84      1.89      0.01         0.01
  C70710                      1.89      1.89      2.71      1.85         0.01
  C7071001                    1.96      1.96      2.71      1.93         1.93
  C7071002                    1.84      1.84      1.96      0.01         0.01
  C708                        0.01      0.01      0.01      2.98         0.01
  C712                        0.01      0.01      0.01      2.96         0.01
  C71201A                     0.01      0.01      5.10      0.01         0.01
  C71202                      2.13      2.76      2.13      2.97         2.13
  C7120201                    2.35      2.35      2.53      1.96         1.96
  C7120201A                   2.34      2.34      2.35      1.96         1.70
  C7120202                    2.17      2.17      2.34      0.01         0.01
  C712020201                  2.02      2.02      2.34      0.01         0.01
  C712020202                  1.89      1.89      2.02      0.01         0.01
  C712020203                  1.84      1.84      1.89      0.01         0.01
  C7120203                    2.06      2.06      2.17      0.01         0.01
  C7120206                    2.91      2.91      2.94      0.01         0.01
  C7120207                    2.85      2.85      2.94      0.01         0.01
  C7120208                    2.44      2.44      2.85      0.01         0.01
  C7120209                    2.13      2.13      2.44      0.01         0.01
  C71202A                     2.38      2.38      2.76      0.01         0.01
  C71203                      2.01      2.01      2.38      0.01         0.01
  C71204                      1.93      1.93      2.01      0.01         0.01
  C71205                      1.89      1.89      1.93      0.01         0.01
  C71206                      1.89      1.91      1.89      2.02         1.89
  C71207                      1.88      1.88      1.91      0.01         0.01
  C71208                      1.81      1.81      1.91      0.01         0.01
  C71209                      1.81      1.96      1.81      2.00         1.81
  C713                        1.73      1.73      2.61      3.71         0.01
  C714                        2.48      2.48      2.61      2.00         1.95
  C715                        2.38      2.38      2.48      1.79         1.71
  C716                        2.38      2.45      2.38      3.06         2.38
  C717                        2.40      2.40      2.45      1.95         1.93
  C71701                      0.01      0.01     69.53      0.01         0.01
  C71702                      0.01      3.36      0.01      3.02         0.01
  C71703                      3.13      3.13      3.36      3.12         3.03
  C71704                      3.12      3.12      3.13      2.97         2.16
  C71705A                     3.12      3.21      3.12      3.84         3.10
  C71706                      0.01      0.01      0.01      1.96         0.01
  C7170601                    0.73      0.73      0.87      0.01         0.01
  C7170602                    0.01      0.01      0.73      0.01         0.01
  C71707                      0.01      0.01      2.13      0.01         0.01
  C718                        2.37      2.37      2.40      1.47         0.96
  C719                        2.19      2.19      2.37      0.01         0.01
  C720                        2.00      2.00      2.19      0.01         0.01
  C721                        2.37      2.37      2.46      2.30         2.24
  C722                        2.37      2.37      3.09      0.01         0.01
  C72201A                     2.32      2.32     69.36      0.01         0.01
  C72202                      1.89      1.89      1.98      1.88         1.87
  C72203                      1.89      2.02      1.89      2.80         1.89
  C72204                      2.55      2.55      2.81      1.93         1.93
  C7220401                    2.03      2.03      2.06      0.01         0.01
  C7220402                    1.97      1.97      2.03      0.01         0.01
  C7220403                    1.90      1.90      1.97      0.01         0.01
  C7220404                    1.89      1.89      1.90      0.01         0.01
  C7220405                    1.88      1.88      1.89      0.01         0.01
  C7220406                    0.01      0.01      1.88      0.01         0.01
  C7220412                    2.55      2.57      2.55      2.67         2.54
  C7220413                    2.57      2.57      2.57      2.72         2.48
  C7220414                    2.49      2.49      2.57      0.01         0.01
  C7220415                    1.98      1.98      2.49      0.01         0.01
  C7220416                    1.78      1.78      1.98      0.01         0.01
  C72205                      2.62      2.62      2.75      2.19         2.18
  C72206                      2.02      2.02      2.62      0.01         0.01
  C72207                      1.93      1.93      2.02      0.99         1.00
  C72208                      1.84      1.84      1.91      0.01         0.01
  C72209                      1.03      1.03      1.84      0.01         0.01
  C72210                      1.03      1.06      1.03      2.33         1.01
  C72211                      0.82      0.82      1.06      0.01         0.01
  C723                        2.99      3.00      3.09      2.52         2.31
  C724                        2.78      2.78      3.00      0.01         0.14
  C725                        2.46      2.46      2.78      0.01         0.01
  C726                        2.04      2.04      2.46      0.01         0.01
  C727                        2.03      2.06      2.04      2.83         1.43
  C72701                      0.01      0.01      2.06      0.01         0.01
  C72702                      0.01      0.01      0.01      1.85         0.01
  C72703                      0.97      1.93      0.97      3.17         0.97
  C72704                      1.93      2.08      1.93      2.98         1.93
  C72705                      2.08      2.14      2.08      2.81         2.08
  C72706                      2.14      2.14      2.81      3.39         0.01
  C728                        0.01      0.01      2.06      0.01         0.01
  C732                        0.01      0.01      0.01      4.09         0.01
  C735                        0.01      0.01      0.01     70.08         0.01
  C737                        0.01      0.01      0.01      2.47         0.01
  C741                        0.01      0.01      0.01      2.72         0.01
  C742                        0.01      0.01      0.01      3.75         0.01
  C752                        0.01      0.01      0.01     70.71         0.01
  C753                        0.01      0.01      0.01     70.73         0.01
  C755                        0.01      0.01      0.01      0.24         0.01
  C759                        0.01      0.01      0.01      3.11         0.01
  C768                        0.01      0.01      0.01     70.42         0.01
  C769                        0.01      0.01      0.01     70.82         0.01
  C770                        0.01      2.00      0.01      4.43         0.01
  C771                        2.00      2.55      2.00     70.51         2.00
  C772                        2.96      3.06      2.96     69.72         2.96
  C773                        3.06      3.12      3.06      6.17         3.06
  C774                        3.12      3.16      3.12      4.05         3.12
  C775                        3.16      3.25      3.16     70.18         3.16
  C776                        3.25      3.30      3.25      5.87         3.24
  C777                        3.29      3.30      3.30      3.34         3.19
  C778                        3.30      3.32      3.30      3.79         3.30
  C779                        3.32      3.39      3.32     70.80         3.32
  C780                        3.39      3.58      3.39     71.52         3.39
  C781                        3.58      3.65      3.58     71.61         3.58
  C782                        3.65      3.76      3.65     71.68         3.65
  C783                        3.73      3.73      3.76      3.42         3.23
  C784                        2.92      2.92      3.73      0.01         0.01
  C785                        2.35      2.35      3.00      0.01         0.01
  C786                        2.21      2.21      2.35      0.01         0.01
  C787                        2.10      2.10      2.21      0.01         0.01
  C788                        1.92      1.92      2.10      0.01         0.01
  C789                        1.92      2.23      1.92      3.07         1.92
  C790                        2.23      2.65      2.23      3.05         2.23
  C791                        2.10      2.10      2.65      0.01         0.01
  C792                        1.58      1.58      2.10      0.01         0.01
  CNSYPHON                    0.01      0.01     72.00      0.01         0.01
  P202                        1.94      1.95      1.95      2.02         1.93
  P203                        1.95      1.95      1.99      1.88         1.88
  P204                        1.41      1.99      1.41      2.99         1.41
  P205                        1.16      1.16      1.92      0.01         0.01
  P206                        1.92      1.92      1.94      0.01         0.08
  P207                        1.94      1.94      2.26      0.01         0.01
  P208                        2.19      2.19      2.38      0.60         0.01
  P209                        2.38      2.38      2.51      2.00         2.00
  P210                        0.01      0.01      0.01      1.09         0.01
  P211                        0.01      0.01      0.01      1.22         0.01
  P212                        0.01      0.01      0.01      3.25         0.01
  XC72204                     2.02      2.02      2.23      2.88         0.01
  

  Analysis begun on:  Fri Mar  6 12:35:02 2026
  Analysis ended on:  Fri Mar  6 12:37:43 2026
  Total elapsed time: 00:02:41